# generated using pymatgen
data_Ti1229V2478Cr389
_symmetry_space_group_name_H-M   'P 1'
_cell_length_a   41.70778345
_cell_length_b   41.70778345
_cell_length_c   41.70778345
_cell_angle_alpha   109.47122063
_cell_angle_beta   109.47122063
_cell_angle_gamma   109.47122063
_symmetry_Int_Tables_number   1
_chemical_formula_structural   Ti1229V2478Cr389
_chemical_formula_sum   'Ti1229 V2478 Cr389'
_cell_volume   55850.80524800
_cell_formula_units_Z   1
loop_
 _symmetry_equiv_pos_site_id
 _symmetry_equiv_pos_as_xyz
  1  'x, y, z'
loop_
 _atom_site_type_symbol
 _atom_site_label
 _atom_site_symmetry_multiplicity
 _atom_site_fract_x
 _atom_site_fract_y
 _atom_site_fract_z
 _atom_site_occupancy
  Cr  Cr0  1  0.00000000  0.00000000  0.00000000  1
  V  V1  1  0.00000000  0.00000000  0.06250000  1
  Cr  Cr2  1  0.00000000  0.00000000  0.12500000  1
  V  V3  1  0.00000000  0.00000000  0.18750000  1
  Cr  Cr4  1  0.00000000  0.00000000  0.25000000  1
  V  V5  1  0.00000000  0.00000000  0.31250000  1
  Cr  Cr6  1  0.00000000  0.00000000  0.37500000  1
  V  V7  1  0.00000000  0.00000000  0.43750000  1
  Cr  Cr8  1  0.00000000  0.00000000  0.50000000  1
  V  V9  1  0.00000000  0.00000000  0.56250000  1
  Cr  Cr10  1  0.00000000  0.00000000  0.62500000  1
  Cr  Cr11  1  0.00000000  0.00000000  0.68750000  1
  Cr  Cr12  1  0.00000000  0.00000000  0.75000000  1
  V  V13  1  0.00000000  0.00000000  0.81250000  1
  Cr  Cr14  1  0.00000000  0.00000000  0.87500000  1
  V  V15  1  0.00000000  0.00000000  0.93750000  1
  V  V16  1  0.00000000  0.06250000  0.00000000  1
  V  V17  1  0.00000000  0.06250000  0.06250000  1
  V  V18  1  0.00000000  0.06250000  0.12500000  1
  Cr  Cr19  1  0.00000000  0.06250000  0.18750000  1
  V  V20  1  0.00000000  0.06250000  0.25000000  1
  V  V21  1  0.00000000  0.06250000  0.31250000  1
  V  V22  1  0.00000000  0.06250000  0.37500000  1
  Cr  Cr23  1  0.00000000  0.06250000  0.43750000  1
  V  V24  1  0.00000000  0.06250000  0.50000000  1
  Cr  Cr25  1  0.00000000  0.06250000  0.56250000  1
  V  V26  1  0.00000000  0.06250000  0.62500000  1
  V  V27  1  0.00000000  0.06250000  0.68750000  1
  V  V28  1  0.00000000  0.06250000  0.75000000  1
  Cr  Cr29  1  0.00000000  0.06250000  0.81250000  1
  Cr  Cr30  1  0.00000000  0.06250000  0.87500000  1
  V  V31  1  0.00000000  0.06250000  0.93750000  1
  V  V32  1  0.00000000  0.12500000  0.00000000  1
  V  V33  1  0.00000000  0.12500000  0.06250000  1
  V  V34  1  0.00000000  0.12500000  0.12500000  1
  V  V35  1  0.00000000  0.12500000  0.18750000  1
  V  V36  1  0.00000000  0.12500000  0.25000000  1
  V  V37  1  0.00000000  0.12500000  0.31250000  1
  Cr  Cr38  1  0.00000000  0.12500000  0.37500000  1
  V  V39  1  0.00000000  0.12500000  0.43750000  1
  V  V40  1  0.00000000  0.12500000  0.50000000  1
  Cr  Cr41  1  0.00000000  0.12500000  0.56250000  1
  V  V42  1  0.00000000  0.12500000  0.62500000  1
  V  V43  1  0.00000000  0.12500000  0.68750000  1
  V  V44  1  0.00000000  0.12500000  0.75000000  1
  V  V45  1  0.00000000  0.12500000  0.81250000  1
  V  V46  1  0.00000000  0.12500000  0.87500000  1
  V  V47  1  0.00000000  0.12500000  0.93750000  1
  V  V48  1  0.00000000  0.18750000  0.00000000  1
  V  V49  1  0.00000000  0.18750000  0.06250000  1
  V  V50  1  0.00000000  0.18750000  0.12500000  1
  V  V51  1  0.00000000  0.18750000  0.18750000  1
  V  V52  1  0.00000000  0.18750000  0.25000000  1
  V  V53  1  0.00000000  0.18750000  0.31250000  1
  V  V54  1  0.00000000  0.18750000  0.37500000  1
  V  V55  1  0.00000000  0.18750000  0.43750000  1
  Cr  Cr56  1  0.00000000  0.18750000  0.50000000  1
  V  V57  1  0.00000000  0.18750000  0.56250000  1
  V  V58  1  0.00000000  0.18750000  0.62500000  1
  V  V59  1  0.00000000  0.18750000  0.68750000  1
  V  V60  1  0.00000000  0.18750000  0.75000000  1
  V  V61  1  0.00000000  0.18750000  0.81250000  1
  V  V62  1  0.00000000  0.18750000  0.87500000  1
  V  V63  1  0.00000000  0.18750000  0.93750000  1
  V  V64  1  0.00000000  0.25000000  0.00000000  1
  V  V65  1  0.00000000  0.25000000  0.06250000  1
  V  V66  1  0.00000000  0.25000000  0.12500000  1
  V  V67  1  0.00000000  0.25000000  0.18750000  1
  V  V68  1  0.00000000  0.25000000  0.25000000  1
  Cr  Cr69  1  0.00000000  0.25000000  0.31250000  1
  V  V70  1  0.00000000  0.25000000  0.37500000  1
  V  V71  1  0.00000000  0.25000000  0.43750000  1
  V  V72  1  0.00000000  0.25000000  0.50000000  1
  Cr  Cr73  1  0.00000000  0.25000000  0.56250000  1
  V  V74  1  0.00000000  0.25000000  0.62500000  1
  V  V75  1  0.00000000  0.25000000  0.68750000  1
  V  V76  1  0.00000000  0.25000000  0.75000000  1
  V  V77  1  0.00000000  0.25000000  0.81250000  1
  V  V78  1  0.00000000  0.25000000  0.87500000  1
  V  V79  1  0.00000000  0.25000000  0.93750000  1
  V  V80  1  0.00000000  0.31250000  0.00000000  1
  V  V81  1  0.00000000  0.31250000  0.06250000  1
  V  V82  1  0.00000000  0.31250000  0.12500000  1
  V  V83  1  0.00000000  0.31250000  0.18750000  1
  V  V84  1  0.00000000  0.31250000  0.25000000  1
  V  V85  1  0.00000000  0.31250000  0.31250000  1
  V  V86  1  0.00000000  0.31250000  0.37500000  1
  V  V87  1  0.00000000  0.31250000  0.43750000  1
  V  V88  1  0.00000000  0.31250000  0.50000000  1
  V  V89  1  0.00000000  0.31250000  0.56250000  1
  V  V90  1  0.00000000  0.31250000  0.62500000  1
  V  V91  1  0.00000000  0.31250000  0.68750000  1
  V  V92  1  0.00000000  0.31250000  0.75000000  1
  V  V93  1  0.00000000  0.31250000  0.81250000  1
  V  V94  1  0.00000000  0.31250000  0.87500000  1
  V  V95  1  0.00000000  0.31250000  0.93750000  1
  V  V96  1  0.00000000  0.37500000  0.00000000  1
  V  V97  1  0.00000000  0.37500000  0.06250000  1
  V  V98  1  0.00000000  0.37500000  0.12500000  1
  V  V99  1  0.00000000  0.37500000  0.18750000  1
  V  V100  1  0.00000000  0.37500000  0.25000000  1
  V  V101  1  0.00000000  0.37500000  0.31250000  1
  V  V102  1  0.00000000  0.37500000  0.37500000  1
  V  V103  1  0.00000000  0.37500000  0.43750000  1
  V  V104  1  0.00000000  0.37500000  0.50000000  1
  V  V105  1  0.00000000  0.37500000  0.56250000  1
  Cr  Cr106  1  0.00000000  0.37500000  0.62500000  1
  V  V107  1  0.00000000  0.37500000  0.68750000  1
  V  V108  1  0.00000000  0.37500000  0.75000000  1
  V  V109  1  0.00000000  0.37500000  0.81250000  1
  V  V110  1  0.00000000  0.37500000  0.87500000  1
  V  V111  1  0.00000000  0.37500000  0.93750000  1
  V  V112  1  0.00000000  0.43750000  0.00000000  1
  V  V113  1  0.00000000  0.43750000  0.06250000  1
  V  V114  1  0.00000000  0.43750000  0.12500000  1
  V  V115  1  0.00000000  0.43750000  0.18750000  1
  V  V116  1  0.00000000  0.43750000  0.25000000  1
  V  V117  1  0.00000000  0.43750000  0.31250000  1
  V  V118  1  0.00000000  0.43750000  0.37500000  1
  V  V119  1  0.00000000  0.43750000  0.43750000  1
  V  V120  1  0.00000000  0.43750000  0.50000000  1
  Cr  Cr121  1  0.00000000  0.43750000  0.56250000  1
  V  V122  1  0.00000000  0.43750000  0.62500000  1
  Ti  Ti123  1  0.00000000  0.43750000  0.68750000  1
  V  V124  1  0.00000000  0.43750000  0.75000000  1
  Cr  Cr125  1  0.00000000  0.43750000  0.81250000  1
  V  V126  1  0.00000000  0.43750000  0.87500000  1
  Cr  Cr127  1  0.00000000  0.43750000  0.93750000  1
  Cr  Cr128  1  0.00000000  0.50000000  0.00000000  1
  V  V129  1  0.00000000  0.50000000  0.06250000  1
  V  V130  1  0.00000000  0.50000000  0.12500000  1
  V  V131  1  0.00000000  0.50000000  0.18750000  1
  V  V132  1  0.00000000  0.50000000  0.25000000  1
  V  V133  1  0.00000000  0.50000000  0.31250000  1
  Cr  Cr134  1  0.00000000  0.50000000  0.37500000  1
  V  V135  1  0.00000000  0.50000000  0.43750000  1
  Cr  Cr136  1  0.00000000  0.50000000  0.50000000  1
  V  V137  1  0.00000000  0.50000000  0.56250000  1
  Ti  Ti138  1  0.00000000  0.50000000  0.62500000  1
  V  V139  1  0.00000000  0.50000000  0.68750000  1
  Ti  Ti140  1  0.00000000  0.50000000  0.75000000  1
  V  V141  1  0.00000000  0.50000000  0.81250000  1
  Ti  Ti142  1  0.00000000  0.50000000  0.87500000  1
  V  V143  1  0.00000000  0.50000000  0.93750000  1
  V  V144  1  0.00000000  0.56250000  0.00000000  1
  Cr  Cr145  1  0.00000000  0.56250000  0.06250000  1
  V  V146  1  0.00000000  0.56250000  0.12500000  1
  Cr  Cr147  1  0.00000000  0.56250000  0.18750000  1
  V  V148  1  0.00000000  0.56250000  0.25000000  1
  V  V149  1  0.00000000  0.56250000  0.31250000  1
  V  V150  1  0.00000000  0.56250000  0.37500000  1
  Cr  Cr151  1  0.00000000  0.56250000  0.43750000  1
  V  V152  1  0.00000000  0.56250000  0.50000000  1
  Ti  Ti153  1  0.00000000  0.56250000  0.56250000  1
  V  V154  1  0.00000000  0.56250000  0.62500000  1
  Ti  Ti155  1  0.00000000  0.56250000  0.68750000  1
  V  V156  1  0.00000000  0.56250000  0.75000000  1
  Ti  Ti157  1  0.00000000  0.56250000  0.81250000  1
  V  V158  1  0.00000000  0.56250000  0.87500000  1
  Ti  Ti159  1  0.00000000  0.56250000  0.93750000  1
  Ti  Ti160  1  0.00000000  0.62500000  0.00000000  1
  V  V161  1  0.00000000  0.62500000  0.06250000  1
  Cr  Cr162  1  0.00000000  0.62500000  0.12500000  1
  V  V163  1  0.00000000  0.62500000  0.18750000  1
  V  V164  1  0.00000000  0.62500000  0.25000000  1
  V  V165  1  0.00000000  0.62500000  0.31250000  1
  Cr  Cr166  1  0.00000000  0.62500000  0.37500000  1
  V  V167  1  0.00000000  0.62500000  0.43750000  1
  Ti  Ti168  1  0.00000000  0.62500000  0.50000000  1
  V  V169  1  0.00000000  0.62500000  0.56250000  1
  Ti  Ti170  1  0.00000000  0.62500000  0.62500000  1
  V  V171  1  0.00000000  0.62500000  0.68750000  1
  Ti  Ti172  1  0.00000000  0.62500000  0.75000000  1
  V  V173  1  0.00000000  0.62500000  0.81250000  1
  Ti  Ti174  1  0.00000000  0.62500000  0.87500000  1
  V  V175  1  0.00000000  0.62500000  0.93750000  1
  V  V176  1  0.00000000  0.68750000  0.00000000  1
  Ti  Ti177  1  0.00000000  0.68750000  0.06250000  1
  V  V178  1  0.00000000  0.68750000  0.12500000  1
  Cr  Cr179  1  0.00000000  0.68750000  0.18750000  1
  V  V180  1  0.00000000  0.68750000  0.25000000  1
  Cr  Cr181  1  0.00000000  0.68750000  0.31250000  1
  V  V182  1  0.00000000  0.68750000  0.37500000  1
  Ti  Ti183  1  0.00000000  0.68750000  0.43750000  1
  V  V184  1  0.00000000  0.68750000  0.50000000  1
  Ti  Ti185  1  0.00000000  0.68750000  0.56250000  1
  V  V186  1  0.00000000  0.68750000  0.62500000  1
  Ti  Ti187  1  0.00000000  0.68750000  0.68750000  1
  V  V188  1  0.00000000  0.68750000  0.75000000  1
  Ti  Ti189  1  0.00000000  0.68750000  0.81250000  1
  V  V190  1  0.00000000  0.68750000  0.87500000  1
  Ti  Ti191  1  0.00000000  0.68750000  0.93750000  1
  Ti  Ti192  1  0.00000000  0.75000000  0.00000000  1
  V  V193  1  0.00000000  0.75000000  0.06250000  1
  Ti  Ti194  1  0.00000000  0.75000000  0.12500000  1
  V  V195  1  0.00000000  0.75000000  0.18750000  1
  Cr  Cr196  1  0.00000000  0.75000000  0.25000000  1
  V  V197  1  0.00000000  0.75000000  0.31250000  1
  Cr  Cr198  1  0.00000000  0.75000000  0.37500000  1
  V  V199  1  0.00000000  0.75000000  0.43750000  1
  Ti  Ti200  1  0.00000000  0.75000000  0.50000000  1
  V  V201  1  0.00000000  0.75000000  0.56250000  1
  Ti  Ti202  1  0.00000000  0.75000000  0.62500000  1
  V  V203  1  0.00000000  0.75000000  0.68750000  1
  Ti  Ti204  1  0.00000000  0.75000000  0.75000000  1
  V  V205  1  0.00000000  0.75000000  0.81250000  1
  Ti  Ti206  1  0.00000000  0.75000000  0.87500000  1
  V  V207  1  0.00000000  0.75000000  0.93750000  1
  V  V208  1  0.00000000  0.81250000  0.00000000  1
  Ti  Ti209  1  0.00000000  0.81250000  0.06250000  1
  V  V210  1  0.00000000  0.81250000  0.12500000  1
  Ti  Ti211  1  0.00000000  0.81250000  0.18750000  1
  V  V212  1  0.00000000  0.81250000  0.25000000  1
  Cr  Cr213  1  0.00000000  0.81250000  0.31250000  1
  V  V214  1  0.00000000  0.81250000  0.37500000  1
  Cr  Cr215  1  0.00000000  0.81250000  0.43750000  1
  V  V216  1  0.00000000  0.81250000  0.50000000  1
  Ti  Ti217  1  0.00000000  0.81250000  0.56250000  1
  V  V218  1  0.00000000  0.81250000  0.62500000  1
  Ti  Ti219  1  0.00000000  0.81250000  0.68750000  1
  V  V220  1  0.00000000  0.81250000  0.75000000  1
  Ti  Ti221  1  0.00000000  0.81250000  0.81250000  1
  V  V222  1  0.00000000  0.81250000  0.87500000  1
  Ti  Ti223  1  0.00000000  0.81250000  0.93750000  1
  Ti  Ti224  1  0.00000000  0.87500000  0.00000000  1
  V  V225  1  0.00000000  0.87500000  0.06250000  1
  Ti  Ti226  1  0.00000000  0.87500000  0.12500000  1
  V  V227  1  0.00000000  0.87500000  0.18750000  1
  Ti  Ti228  1  0.00000000  0.87500000  0.25000000  1
  V  V229  1  0.00000000  0.87500000  0.31250000  1
  Cr  Cr230  1  0.00000000  0.87500000  0.37500000  1
  V  V231  1  0.00000000  0.87500000  0.43750000  1
  Cr  Cr232  1  0.00000000  0.87500000  0.50000000  1
  V  V233  1  0.00000000  0.87500000  0.56250000  1
  Cr  Cr234  1  0.00000000  0.87500000  0.62500000  1
  V  V235  1  0.00000000  0.87500000  0.68750000  1
  Cr  Cr236  1  0.00000000  0.87500000  0.75000000  1
  V  V237  1  0.00000000  0.87500000  0.81250000  1
  Ti  Ti238  1  0.00000000  0.87500000  0.87500000  1
  V  V239  1  0.00000000  0.87500000  0.93750000  1
  V  V240  1  0.00000000  0.93750000  0.00000000  1
  Cr  Cr241  1  0.00000000  0.93750000  0.06250000  1
  V  V242  1  0.00000000  0.93750000  0.12500000  1
  Cr  Cr243  1  0.00000000  0.93750000  0.18750000  1
  V  V244  1  0.00000000  0.93750000  0.25000000  1
  Cr  Cr245  1  0.00000000  0.93750000  0.31250000  1
  V  V246  1  0.00000000  0.93750000  0.37500000  1
  Cr  Cr247  1  0.00000000  0.93750000  0.43750000  1
  V  V248  1  0.00000000  0.93750000  0.50000000  1
  Cr  Cr249  1  0.00000000  0.93750000  0.56250000  1
  V  V250  1  0.00000000  0.93750000  0.62500000  1
  Cr  Cr251  1  0.00000000  0.93750000  0.68750000  1
  V  V252  1  0.00000000  0.93750000  0.75000000  1
  Cr  Cr253  1  0.00000000  0.93750000  0.81250000  1
  V  V254  1  0.00000000  0.93750000  0.87500000  1
  Cr  Cr255  1  0.00000000  0.93750000  0.93750000  1
  V  V256  1  0.06250000  0.00000000  0.00000000  1
  Cr  Cr257  1  0.06250000  0.00000000  0.06250000  1
  Cr  Cr258  1  0.06250000  0.00000000  0.12500000  1
  Cr  Cr259  1  0.06250000  0.00000000  0.18750000  1
  V  V260  1  0.06250000  0.00000000  0.25000000  1
  V  V261  1  0.06250000  0.00000000  0.31250000  1
  V  V262  1  0.06250000  0.00000000  0.37500000  1
  V  V263  1  0.06250000  0.00000000  0.43750000  1
  Cr  Cr264  1  0.06250000  0.00000000  0.50000000  1
  V  V265  1  0.06250000  0.00000000  0.56250000  1
  Cr  Cr266  1  0.06250000  0.00000000  0.62500000  1
  V  V267  1  0.06250000  0.00000000  0.68750000  1
  V  V268  1  0.06250000  0.00000000  0.75000000  1
  V  V269  1  0.06250000  0.00000000  0.81250000  1
  Cr  Cr270  1  0.06250000  0.00000000  0.87500000  1
  Cr  Cr271  1  0.06250000  0.00000000  0.93750000  1
  V  V272  1  0.06250000  0.06250000  0.00000000  1
  V  V273  1  0.06250000  0.06250000  0.06250000  1
  V  V274  1  0.06250000  0.06250000  0.12500000  1
  V  V275  1  0.06250000  0.06250000  0.18750000  1
  V  V276  1  0.06250000  0.06250000  0.25000000  1
  V  V277  1  0.06250000  0.06250000  0.31250000  1
  V  V278  1  0.06250000  0.06250000  0.37500000  1
  V  V279  1  0.06250000  0.06250000  0.43750000  1
  V  V280  1  0.06250000  0.06250000  0.50000000  1
  V  V281  1  0.06250000  0.06250000  0.56250000  1
  V  V282  1  0.06250000  0.06250000  0.62500000  1
  Cr  Cr283  1  0.06250000  0.06250000  0.68750000  1
  Cr  Cr284  1  0.06250000  0.06250000  0.75000000  1
  Cr  Cr285  1  0.06250000  0.06250000  0.81250000  1
  V  V286  1  0.06250000  0.06250000  0.87500000  1
  Cr  Cr287  1  0.06250000  0.06250000  0.93750000  1
  V  V288  1  0.06250000  0.12500000  0.00000000  1
  V  V289  1  0.06250000  0.12500000  0.06250000  1
  V  V290  1  0.06250000  0.12500000  0.12500000  1
  V  V291  1  0.06250000  0.12500000  0.18750000  1
  V  V292  1  0.06250000  0.12500000  0.25000000  1
  V  V293  1  0.06250000  0.12500000  0.31250000  1
  V  V294  1  0.06250000  0.12500000  0.37500000  1
  V  V295  1  0.06250000  0.12500000  0.43750000  1
  V  V296  1  0.06250000  0.12500000  0.50000000  1
  V  V297  1  0.06250000  0.12500000  0.56250000  1
  V  V298  1  0.06250000  0.12500000  0.62500000  1
  V  V299  1  0.06250000  0.12500000  0.68750000  1
  V  V300  1  0.06250000  0.12500000  0.75000000  1
  V  V301  1  0.06250000  0.12500000  0.81250000  1
  V  V302  1  0.06250000  0.12500000  0.87500000  1
  V  V303  1  0.06250000  0.12500000  0.93750000  1
  V  V304  1  0.06250000  0.18750000  0.00000000  1
  V  V305  1  0.06250000  0.18750000  0.06250000  1
  V  V306  1  0.06250000  0.18750000  0.12500000  1
  V  V307  1  0.06250000  0.18750000  0.18750000  1
  V  V308  1  0.06250000  0.18750000  0.25000000  1
  V  V309  1  0.06250000  0.18750000  0.31250000  1
  V  V310  1  0.06250000  0.18750000  0.37500000  1
  V  V311  1  0.06250000  0.18750000  0.43750000  1
  V  V312  1  0.06250000  0.18750000  0.50000000  1
  V  V313  1  0.06250000  0.18750000  0.56250000  1
  V  V314  1  0.06250000  0.18750000  0.62500000  1
  V  V315  1  0.06250000  0.18750000  0.68750000  1
  V  V316  1  0.06250000  0.18750000  0.75000000  1
  V  V317  1  0.06250000  0.18750000  0.81250000  1
  V  V318  1  0.06250000  0.18750000  0.87500000  1
  V  V319  1  0.06250000  0.18750000  0.93750000  1
  V  V320  1  0.06250000  0.25000000  0.00000000  1
  V  V321  1  0.06250000  0.25000000  0.06250000  1
  V  V322  1  0.06250000  0.25000000  0.12500000  1
  V  V323  1  0.06250000  0.25000000  0.18750000  1
  V  V324  1  0.06250000  0.25000000  0.25000000  1
  V  V325  1  0.06250000  0.25000000  0.31250000  1
  V  V326  1  0.06250000  0.25000000  0.37500000  1
  V  V327  1  0.06250000  0.25000000  0.43750000  1
  V  V328  1  0.06250000  0.25000000  0.50000000  1
  V  V329  1  0.06250000  0.25000000  0.56250000  1
  V  V330  1  0.06250000  0.25000000  0.62500000  1
  V  V331  1  0.06250000  0.25000000  0.68750000  1
  V  V332  1  0.06250000  0.25000000  0.75000000  1
  V  V333  1  0.06250000  0.25000000  0.81250000  1
  V  V334  1  0.06250000  0.25000000  0.87500000  1
  V  V335  1  0.06250000  0.25000000  0.93750000  1
  V  V336  1  0.06250000  0.31250000  0.00000000  1
  V  V337  1  0.06250000  0.31250000  0.06250000  1
  V  V338  1  0.06250000  0.31250000  0.12500000  1
  V  V339  1  0.06250000  0.31250000  0.18750000  1
  V  V340  1  0.06250000  0.31250000  0.25000000  1
  V  V341  1  0.06250000  0.31250000  0.31250000  1
  V  V342  1  0.06250000  0.31250000  0.37500000  1
  V  V343  1  0.06250000  0.31250000  0.43750000  1
  V  V344  1  0.06250000  0.31250000  0.50000000  1
  V  V345  1  0.06250000  0.31250000  0.56250000  1
  V  V346  1  0.06250000  0.31250000  0.62500000  1
  V  V347  1  0.06250000  0.31250000  0.68750000  1
  V  V348  1  0.06250000  0.31250000  0.75000000  1
  V  V349  1  0.06250000  0.31250000  0.81250000  1
  V  V350  1  0.06250000  0.31250000  0.87500000  1
  V  V351  1  0.06250000  0.31250000  0.93750000  1
  V  V352  1  0.06250000  0.37500000  0.00000000  1
  V  V353  1  0.06250000  0.37500000  0.06250000  1
  V  V354  1  0.06250000  0.37500000  0.12500000  1
  V  V355  1  0.06250000  0.37500000  0.18750000  1
  V  V356  1  0.06250000  0.37500000  0.25000000  1
  V  V357  1  0.06250000  0.37500000  0.31250000  1
  V  V358  1  0.06250000  0.37500000  0.37500000  1
  V  V359  1  0.06250000  0.37500000  0.43750000  1
  V  V360  1  0.06250000  0.37500000  0.50000000  1
  V  V361  1  0.06250000  0.37500000  0.56250000  1
  V  V362  1  0.06250000  0.37500000  0.62500000  1
  V  V363  1  0.06250000  0.37500000  0.68750000  1
  V  V364  1  0.06250000  0.37500000  0.75000000  1
  V  V365  1  0.06250000  0.37500000  0.81250000  1
  V  V366  1  0.06250000  0.37500000  0.87500000  1
  V  V367  1  0.06250000  0.37500000  0.93750000  1
  V  V368  1  0.06250000  0.43750000  0.00000000  1
  V  V369  1  0.06250000  0.43750000  0.06250000  1
  V  V370  1  0.06250000  0.43750000  0.12500000  1
  V  V371  1  0.06250000  0.43750000  0.18750000  1
  V  V372  1  0.06250000  0.43750000  0.25000000  1
  V  V373  1  0.06250000  0.43750000  0.31250000  1
  V  V374  1  0.06250000  0.43750000  0.37500000  1
  V  V375  1  0.06250000  0.43750000  0.43750000  1
  V  V376  1  0.06250000  0.43750000  0.50000000  1
  V  V377  1  0.06250000  0.43750000  0.56250000  1
  V  V378  1  0.06250000  0.43750000  0.62500000  1
  V  V379  1  0.06250000  0.43750000  0.68750000  1
  V  V380  1  0.06250000  0.43750000  0.75000000  1
  V  V381  1  0.06250000  0.43750000  0.81250000  1
  V  V382  1  0.06250000  0.43750000  0.87500000  1
  V  V383  1  0.06250000  0.43750000  0.93750000  1
  V  V384  1  0.06250000  0.50000000  0.00000000  1
  V  V385  1  0.06250000  0.50000000  0.06250000  1
  V  V386  1  0.06250000  0.50000000  0.12500000  1
  V  V387  1  0.06250000  0.50000000  0.18750000  1
  V  V388  1  0.06250000  0.50000000  0.25000000  1
  V  V389  1  0.06250000  0.50000000  0.31250000  1
  V  V390  1  0.06250000  0.50000000  0.37500000  1
  V  V391  1  0.06250000  0.50000000  0.43750000  1
  V  V392  1  0.06250000  0.50000000  0.50000000  1
  V  V393  1  0.06250000  0.50000000  0.56250000  1
  V  V394  1  0.06250000  0.50000000  0.62500000  1
  Cr  Cr395  1  0.06250000  0.50000000  0.68750000  1
  V  V396  1  0.06250000  0.50000000  0.75000000  1
  Ti  Ti397  1  0.06250000  0.50000000  0.81250000  1
  V  V398  1  0.06250000  0.50000000  0.87500000  1
  Cr  Cr399  1  0.06250000  0.50000000  0.93750000  1
  Ti  Ti400  1  0.06250000  0.56250000  0.00000000  1
  V  V401  1  0.06250000  0.56250000  0.06250000  1
  V  V402  1  0.06250000  0.56250000  0.12500000  1
  V  V403  1  0.06250000  0.56250000  0.18750000  1
  V  V404  1  0.06250000  0.56250000  0.25000000  1
  V  V405  1  0.06250000  0.56250000  0.31250000  1
  V  V406  1  0.06250000  0.56250000  0.37500000  1
  V  V407  1  0.06250000  0.56250000  0.43750000  1
  V  V408  1  0.06250000  0.56250000  0.50000000  1
  V  V409  1  0.06250000  0.56250000  0.56250000  1
  Ti  Ti410  1  0.06250000  0.56250000  0.62500000  1
  V  V411  1  0.06250000  0.56250000  0.68750000  1
  Ti  Ti412  1  0.06250000  0.56250000  0.75000000  1
  V  V413  1  0.06250000  0.56250000  0.81250000  1
  Ti  Ti414  1  0.06250000  0.56250000  0.87500000  1
  V  V415  1  0.06250000  0.56250000  0.93750000  1
  V  V416  1  0.06250000  0.62500000  0.00000000  1
  Cr  Cr417  1  0.06250000  0.62500000  0.06250000  1
  V  V418  1  0.06250000  0.62500000  0.12500000  1
  Cr  Cr419  1  0.06250000  0.62500000  0.18750000  1
  V  V420  1  0.06250000  0.62500000  0.25000000  1
  V  V421  1  0.06250000  0.62500000  0.31250000  1
  V  V422  1  0.06250000  0.62500000  0.37500000  1
  Cr  Cr423  1  0.06250000  0.62500000  0.43750000  1
  V  V424  1  0.06250000  0.62500000  0.50000000  1
  Ti  Ti425  1  0.06250000  0.62500000  0.56250000  1
  V  V426  1  0.06250000  0.62500000  0.62500000  1
  Ti  Ti427  1  0.06250000  0.62500000  0.68750000  1
  V  V428  1  0.06250000  0.62500000  0.75000000  1
  Ti  Ti429  1  0.06250000  0.62500000  0.81250000  1
  V  V430  1  0.06250000  0.62500000  0.87500000  1
  Ti  Ti431  1  0.06250000  0.62500000  0.93750000  1
  Ti  Ti432  1  0.06250000  0.68750000  0.00000000  1
  V  V433  1  0.06250000  0.68750000  0.06250000  1
  Cr  Cr434  1  0.06250000  0.68750000  0.12500000  1
  V  V435  1  0.06250000  0.68750000  0.18750000  1
  V  V436  1  0.06250000  0.68750000  0.25000000  1
  Cr  Cr437  1  0.06250000  0.68750000  0.31250000  1
  V  V438  1  0.06250000  0.68750000  0.37500000  1
  V  V439  1  0.06250000  0.68750000  0.43750000  1
  Ti  Ti440  1  0.06250000  0.68750000  0.50000000  1
  V  V441  1  0.06250000  0.68750000  0.56250000  1
  Ti  Ti442  1  0.06250000  0.68750000  0.62500000  1
  V  V443  1  0.06250000  0.68750000  0.68750000  1
  Ti  Ti444  1  0.06250000  0.68750000  0.75000000  1
  V  V445  1  0.06250000  0.68750000  0.81250000  1
  Ti  Ti446  1  0.06250000  0.68750000  0.87500000  1
  V  V447  1  0.06250000  0.68750000  0.93750000  1
  V  V448  1  0.06250000  0.75000000  0.00000000  1
  Ti  Ti449  1  0.06250000  0.75000000  0.06250000  1
  V  V450  1  0.06250000  0.75000000  0.12500000  1
  Cr  Cr451  1  0.06250000  0.75000000  0.18750000  1
  V  V452  1  0.06250000  0.75000000  0.25000000  1
  V  V453  1  0.06250000  0.75000000  0.31250000  1
  V  V454  1  0.06250000  0.75000000  0.37500000  1
  Cr  Cr455  1  0.06250000  0.75000000  0.43750000  1
  V  V456  1  0.06250000  0.75000000  0.50000000  1
  Ti  Ti457  1  0.06250000  0.75000000  0.56250000  1
  V  V458  1  0.06250000  0.75000000  0.62500000  1
  Ti  Ti459  1  0.06250000  0.75000000  0.68750000  1
  V  V460  1  0.06250000  0.75000000  0.75000000  1
  Ti  Ti461  1  0.06250000  0.75000000  0.81250000  1
  V  V462  1  0.06250000  0.75000000  0.87500000  1
  Ti  Ti463  1  0.06250000  0.75000000  0.93750000  1
  Ti  Ti464  1  0.06250000  0.81250000  0.00000000  1
  V  V465  1  0.06250000  0.81250000  0.06250000  1
  Cr  Cr466  1  0.06250000  0.81250000  0.12500000  1
  V  V467  1  0.06250000  0.81250000  0.18750000  1
  Cr  Cr468  1  0.06250000  0.81250000  0.25000000  1
  V  V469  1  0.06250000  0.81250000  0.31250000  1
  Cr  Cr470  1  0.06250000  0.81250000  0.37500000  1
  V  V471  1  0.06250000  0.81250000  0.43750000  1
  Cr  Cr472  1  0.06250000  0.81250000  0.50000000  1
  V  V473  1  0.06250000  0.81250000  0.56250000  1
  Ti  Ti474  1  0.06250000  0.81250000  0.62500000  1
  V  V475  1  0.06250000  0.81250000  0.68750000  1
  Ti  Ti476  1  0.06250000  0.81250000  0.75000000  1
  V  V477  1  0.06250000  0.81250000  0.81250000  1
  Ti  Ti478  1  0.06250000  0.81250000  0.87500000  1
  V  V479  1  0.06250000  0.81250000  0.93750000  1
  V  V480  1  0.06250000  0.87500000  0.00000000  1
  Cr  Cr481  1  0.06250000  0.87500000  0.06250000  1
  V  V482  1  0.06250000  0.87500000  0.12500000  1
  Cr  Cr483  1  0.06250000  0.87500000  0.18750000  1
  V  V484  1  0.06250000  0.87500000  0.25000000  1
  Cr  Cr485  1  0.06250000  0.87500000  0.31250000  1
  V  V486  1  0.06250000  0.87500000  0.37500000  1
  Cr  Cr487  1  0.06250000  0.87500000  0.43750000  1
  V  V488  1  0.06250000  0.87500000  0.50000000  1
  Cr  Cr489  1  0.06250000  0.87500000  0.56250000  1
  V  V490  1  0.06250000  0.87500000  0.62500000  1
  Cr  Cr491  1  0.06250000  0.87500000  0.68750000  1
  V  V492  1  0.06250000  0.87500000  0.75000000  1
  Ti  Ti493  1  0.06250000  0.87500000  0.81250000  1
  V  V494  1  0.06250000  0.87500000  0.87500000  1
  Ti  Ti495  1  0.06250000  0.87500000  0.93750000  1
  Cr  Cr496  1  0.06250000  0.93750000  0.00000000  1
  V  V497  1  0.06250000  0.93750000  0.06250000  1
  Cr  Cr498  1  0.06250000  0.93750000  0.12500000  1
  V  V499  1  0.06250000  0.93750000  0.18750000  1
  Cr  Cr500  1  0.06250000  0.93750000  0.25000000  1
  V  V501  1  0.06250000  0.93750000  0.31250000  1
  Cr  Cr502  1  0.06250000  0.93750000  0.37500000  1
  V  V503  1  0.06250000  0.93750000  0.43750000  1
  Cr  Cr504  1  0.06250000  0.93750000  0.50000000  1
  Cr  Cr505  1  0.06250000  0.93750000  0.56250000  1
  Cr  Cr506  1  0.06250000  0.93750000  0.62500000  1
  V  V507  1  0.06250000  0.93750000  0.68750000  1
  Cr  Cr508  1  0.06250000  0.93750000  0.75000000  1
  V  V509  1  0.06250000  0.93750000  0.81250000  1
  Cr  Cr510  1  0.06250000  0.93750000  0.87500000  1
  V  V511  1  0.06250000  0.93750000  0.93750000  1
  Cr  Cr512  1  0.12500000  0.00000000  0.00000000  1
  V  V513  1  0.12500000  0.00000000  0.06250000  1
  V  V514  1  0.12500000  0.00000000  0.12500000  1
  Cr  Cr515  1  0.12500000  0.00000000  0.18750000  1
  Cr  Cr516  1  0.12500000  0.00000000  0.25000000  1
  V  V517  1  0.12500000  0.00000000  0.31250000  1
  V  V518  1  0.12500000  0.00000000  0.37500000  1
  Cr  Cr519  1  0.12500000  0.00000000  0.43750000  1
  V  V520  1  0.12500000  0.00000000  0.50000000  1
  Cr  Cr521  1  0.12500000  0.00000000  0.56250000  1
  V  V522  1  0.12500000  0.00000000  0.62500000  1
  Cr  Cr523  1  0.12500000  0.00000000  0.68750000  1
  V  V524  1  0.12500000  0.00000000  0.75000000  1
  Cr  Cr525  1  0.12500000  0.00000000  0.81250000  1
  V  V526  1  0.12500000  0.00000000  0.87500000  1
  V  V527  1  0.12500000  0.00000000  0.93750000  1
  V  V528  1  0.12500000  0.06250000  0.00000000  1
  Cr  Cr529  1  0.12500000  0.06250000  0.06250000  1
  V  V530  1  0.12500000  0.06250000  0.12500000  1
  V  V531  1  0.12500000  0.06250000  0.18750000  1
  V  V532  1  0.12500000  0.06250000  0.25000000  1
  V  V533  1  0.12500000  0.06250000  0.31250000  1
  V  V534  1  0.12500000  0.06250000  0.37500000  1
  V  V535  1  0.12500000  0.06250000  0.43750000  1
  V  V536  1  0.12500000  0.06250000  0.50000000  1
  V  V537  1  0.12500000  0.06250000  0.56250000  1
  V  V538  1  0.12500000  0.06250000  0.62500000  1
  V  V539  1  0.12500000  0.06250000  0.68750000  1
  Cr  Cr540  1  0.12500000  0.06250000  0.75000000  1
  Cr  Cr541  1  0.12500000  0.06250000  0.81250000  1
  Cr  Cr542  1  0.12500000  0.06250000  0.87500000  1
  V  V543  1  0.12500000  0.06250000  0.93750000  1
  V  V544  1  0.12500000  0.12500000  0.00000000  1
  V  V545  1  0.12500000  0.12500000  0.06250000  1
  V  V546  1  0.12500000  0.12500000  0.12500000  1
  V  V547  1  0.12500000  0.12500000  0.18750000  1
  V  V548  1  0.12500000  0.12500000  0.25000000  1
  V  V549  1  0.12500000  0.12500000  0.31250000  1
  V  V550  1  0.12500000  0.12500000  0.37500000  1
  V  V551  1  0.12500000  0.12500000  0.43750000  1
  V  V552  1  0.12500000  0.12500000  0.50000000  1
  V  V553  1  0.12500000  0.12500000  0.56250000  1
  V  V554  1  0.12500000  0.12500000  0.62500000  1
  V  V555  1  0.12500000  0.12500000  0.68750000  1
  Cr  Cr556  1  0.12500000  0.12500000  0.75000000  1
  V  V557  1  0.12500000  0.12500000  0.81250000  1
  V  V558  1  0.12500000  0.12500000  0.87500000  1
  V  V559  1  0.12500000  0.12500000  0.93750000  1
  V  V560  1  0.12500000  0.18750000  0.00000000  1
  V  V561  1  0.12500000  0.18750000  0.06250000  1
  V  V562  1  0.12500000  0.18750000  0.12500000  1
  V  V563  1  0.12500000  0.18750000  0.18750000  1
  V  V564  1  0.12500000  0.18750000  0.25000000  1
  V  V565  1  0.12500000  0.18750000  0.31250000  1
  V  V566  1  0.12500000  0.18750000  0.37500000  1
  V  V567  1  0.12500000  0.18750000  0.43750000  1
  V  V568  1  0.12500000  0.18750000  0.50000000  1
  V  V569  1  0.12500000  0.18750000  0.56250000  1
  V  V570  1  0.12500000  0.18750000  0.62500000  1
  V  V571  1  0.12500000  0.18750000  0.68750000  1
  V  V572  1  0.12500000  0.18750000  0.75000000  1
  V  V573  1  0.12500000  0.18750000  0.81250000  1
  V  V574  1  0.12500000  0.18750000  0.87500000  1
  V  V575  1  0.12500000  0.18750000  0.93750000  1
  V  V576  1  0.12500000  0.25000000  0.00000000  1
  V  V577  1  0.12500000  0.25000000  0.06250000  1
  V  V578  1  0.12500000  0.25000000  0.12500000  1
  V  V579  1  0.12500000  0.25000000  0.18750000  1
  V  V580  1  0.12500000  0.25000000  0.25000000  1
  V  V581  1  0.12500000  0.25000000  0.31250000  1
  V  V582  1  0.12500000  0.25000000  0.37500000  1
  V  V583  1  0.12500000  0.25000000  0.43750000  1
  V  V584  1  0.12500000  0.25000000  0.50000000  1
  V  V585  1  0.12500000  0.25000000  0.56250000  1
  V  V586  1  0.12500000  0.25000000  0.62500000  1
  V  V587  1  0.12500000  0.25000000  0.68750000  1
  V  V588  1  0.12500000  0.25000000  0.75000000  1
  V  V589  1  0.12500000  0.25000000  0.81250000  1
  V  V590  1  0.12500000  0.25000000  0.87500000  1
  V  V591  1  0.12500000  0.25000000  0.93750000  1
  V  V592  1  0.12500000  0.31250000  0.00000000  1
  V  V593  1  0.12500000  0.31250000  0.06250000  1
  V  V594  1  0.12500000  0.31250000  0.12500000  1
  V  V595  1  0.12500000  0.31250000  0.18750000  1
  V  V596  1  0.12500000  0.31250000  0.25000000  1
  V  V597  1  0.12500000  0.31250000  0.31250000  1
  V  V598  1  0.12500000  0.31250000  0.37500000  1
  V  V599  1  0.12500000  0.31250000  0.43750000  1
  V  V600  1  0.12500000  0.31250000  0.50000000  1
  V  V601  1  0.12500000  0.31250000  0.56250000  1
  V  V602  1  0.12500000  0.31250000  0.62500000  1
  V  V603  1  0.12500000  0.31250000  0.68750000  1
  V  V604  1  0.12500000  0.31250000  0.75000000  1
  V  V605  1  0.12500000  0.31250000  0.81250000  1
  V  V606  1  0.12500000  0.31250000  0.87500000  1
  V  V607  1  0.12500000  0.31250000  0.93750000  1
  V  V608  1  0.12500000  0.37500000  0.00000000  1
  V  V609  1  0.12500000  0.37500000  0.06250000  1
  V  V610  1  0.12500000  0.37500000  0.12500000  1
  V  V611  1  0.12500000  0.37500000  0.18750000  1
  V  V612  1  0.12500000  0.37500000  0.25000000  1
  V  V613  1  0.12500000  0.37500000  0.31250000  1
  V  V614  1  0.12500000  0.37500000  0.37500000  1
  V  V615  1  0.12500000  0.37500000  0.43750000  1
  V  V616  1  0.12500000  0.37500000  0.50000000  1
  V  V617  1  0.12500000  0.37500000  0.56250000  1
  V  V618  1  0.12500000  0.37500000  0.62500000  1
  V  V619  1  0.12500000  0.37500000  0.68750000  1
  V  V620  1  0.12500000  0.37500000  0.75000000  1
  V  V621  1  0.12500000  0.37500000  0.81250000  1
  V  V622  1  0.12500000  0.37500000  0.87500000  1
  V  V623  1  0.12500000  0.37500000  0.93750000  1
  V  V624  1  0.12500000  0.43750000  0.00000000  1
  V  V625  1  0.12500000  0.43750000  0.06250000  1
  V  V626  1  0.12500000  0.43750000  0.12500000  1
  V  V627  1  0.12500000  0.43750000  0.18750000  1
  V  V628  1  0.12500000  0.43750000  0.25000000  1
  V  V629  1  0.12500000  0.43750000  0.31250000  1
  V  V630  1  0.12500000  0.43750000  0.37500000  1
  V  V631  1  0.12500000  0.43750000  0.43750000  1
  V  V632  1  0.12500000  0.43750000  0.50000000  1
  V  V633  1  0.12500000  0.43750000  0.56250000  1
  V  V634  1  0.12500000  0.43750000  0.62500000  1
  V  V635  1  0.12500000  0.43750000  0.68750000  1
  V  V636  1  0.12500000  0.43750000  0.75000000  1
  V  V637  1  0.12500000  0.43750000  0.81250000  1
  V  V638  1  0.12500000  0.43750000  0.87500000  1
  V  V639  1  0.12500000  0.43750000  0.93750000  1
  V  V640  1  0.12500000  0.50000000  0.00000000  1
  V  V641  1  0.12500000  0.50000000  0.06250000  1
  V  V642  1  0.12500000  0.50000000  0.12500000  1
  V  V643  1  0.12500000  0.50000000  0.18750000  1
  V  V644  1  0.12500000  0.50000000  0.25000000  1
  V  V645  1  0.12500000  0.50000000  0.31250000  1
  V  V646  1  0.12500000  0.50000000  0.37500000  1
  V  V647  1  0.12500000  0.50000000  0.43750000  1
  V  V648  1  0.12500000  0.50000000  0.50000000  1
  V  V649  1  0.12500000  0.50000000  0.56250000  1
  V  V650  1  0.12500000  0.50000000  0.62500000  1
  V  V651  1  0.12500000  0.50000000  0.68750000  1
  Cr  Cr652  1  0.12500000  0.50000000  0.75000000  1
  V  V653  1  0.12500000  0.50000000  0.81250000  1
  Cr  Cr654  1  0.12500000  0.50000000  0.87500000  1
  V  V655  1  0.12500000  0.50000000  0.93750000  1
  V  V656  1  0.12500000  0.56250000  0.00000000  1
  Cr  Cr657  1  0.12500000  0.56250000  0.06250000  1
  V  V658  1  0.12500000  0.56250000  0.12500000  1
  V  V659  1  0.12500000  0.56250000  0.18750000  1
  V  V660  1  0.12500000  0.56250000  0.25000000  1
  V  V661  1  0.12500000  0.56250000  0.31250000  1
  V  V662  1  0.12500000  0.56250000  0.37500000  1
  V  V663  1  0.12500000  0.56250000  0.43750000  1
  V  V664  1  0.12500000  0.56250000  0.50000000  1
  V  V665  1  0.12500000  0.56250000  0.56250000  1
  V  V666  1  0.12500000  0.56250000  0.62500000  1
  Cr  Cr667  1  0.12500000  0.56250000  0.68750000  1
  V  V668  1  0.12500000  0.56250000  0.75000000  1
  Ti  Ti669  1  0.12500000  0.56250000  0.81250000  1
  V  V670  1  0.12500000  0.56250000  0.87500000  1
  Ti  Ti671  1  0.12500000  0.56250000  0.93750000  1
  Ti  Ti672  1  0.12500000  0.62500000  0.00000000  1
  V  V673  1  0.12500000  0.62500000  0.06250000  1
  V  V674  1  0.12500000  0.62500000  0.12500000  1
  V  V675  1  0.12500000  0.62500000  0.18750000  1
  V  V676  1  0.12500000  0.62500000  0.25000000  1
  V  V677  1  0.12500000  0.62500000  0.31250000  1
  V  V678  1  0.12500000  0.62500000  0.37500000  1
  V  V679  1  0.12500000  0.62500000  0.43750000  1
  V  V680  1  0.12500000  0.62500000  0.50000000  1
  Cr  Cr681  1  0.12500000  0.62500000  0.56250000  1
  Ti  Ti682  1  0.12500000  0.62500000  0.62500000  1
  V  V683  1  0.12500000  0.62500000  0.68750000  1
  Ti  Ti684  1  0.12500000  0.62500000  0.75000000  1
  V  V685  1  0.12500000  0.62500000  0.81250000  1
  Ti  Ti686  1  0.12500000  0.62500000  0.87500000  1
  V  V687  1  0.12500000  0.62500000  0.93750000  1
  V  V688  1  0.12500000  0.68750000  0.00000000  1
  Ti  Ti689  1  0.12500000  0.68750000  0.06250000  1
  V  V690  1  0.12500000  0.68750000  0.12500000  1
  Cr  Cr691  1  0.12500000  0.68750000  0.18750000  1
  Cr  Cr692  1  0.12500000  0.68750000  0.25000000  1
  V  V693  1  0.12500000  0.68750000  0.31250000  1
  V  V694  1  0.12500000  0.68750000  0.37500000  1
  V  V695  1  0.12500000  0.68750000  0.43750000  1
  V  V696  1  0.12500000  0.68750000  0.50000000  1
  Ti  Ti697  1  0.12500000  0.68750000  0.56250000  1
  V  V698  1  0.12500000  0.68750000  0.62500000  1
  Ti  Ti699  1  0.12500000  0.68750000  0.68750000  1
  V  V700  1  0.12500000  0.68750000  0.75000000  1
  Ti  Ti701  1  0.12500000  0.68750000  0.81250000  1
  V  V702  1  0.12500000  0.68750000  0.87500000  1
  Ti  Ti703  1  0.12500000  0.68750000  0.93750000  1
  Ti  Ti704  1  0.12500000  0.75000000  0.00000000  1
  V  V705  1  0.12500000  0.75000000  0.06250000  1
  Ti  Ti706  1  0.12500000  0.75000000  0.12500000  1
  V  V707  1  0.12500000  0.75000000  0.18750000  1
  V  V708  1  0.12500000  0.75000000  0.25000000  1
  Cr  Cr709  1  0.12500000  0.75000000  0.31250000  1
  Cr  Cr710  1  0.12500000  0.75000000  0.37500000  1
  V  V711  1  0.12500000  0.75000000  0.43750000  1
  V  V712  1  0.12500000  0.75000000  0.50000000  1
  V  V713  1  0.12500000  0.75000000  0.56250000  1
  Ti  Ti714  1  0.12500000  0.75000000  0.62500000  1
  V  V715  1  0.12500000  0.75000000  0.68750000  1
  Ti  Ti716  1  0.12500000  0.75000000  0.75000000  1
  V  V717  1  0.12500000  0.75000000  0.81250000  1
  Ti  Ti718  1  0.12500000  0.75000000  0.87500000  1
  V  V719  1  0.12500000  0.75000000  0.93750000  1
  V  V720  1  0.12500000  0.81250000  0.00000000  1
  Ti  Ti721  1  0.12500000  0.81250000  0.06250000  1
  V  V722  1  0.12500000  0.81250000  0.12500000  1
  Cr  Cr723  1  0.12500000  0.81250000  0.18750000  1
  V  V724  1  0.12500000  0.81250000  0.25000000  1
  Cr  Cr725  1  0.12500000  0.81250000  0.31250000  1
  Cr  Cr726  1  0.12500000  0.81250000  0.37500000  1
  V  V727  1  0.12500000  0.81250000  0.43750000  1
  V  V728  1  0.12500000  0.81250000  0.50000000  1
  Cr  Cr729  1  0.12500000  0.81250000  0.56250000  1
  V  V730  1  0.12500000  0.81250000  0.62500000  1
  Ti  Ti731  1  0.12500000  0.81250000  0.68750000  1
  V  V732  1  0.12500000  0.81250000  0.75000000  1
  Ti  Ti733  1  0.12500000  0.81250000  0.81250000  1
  V  V734  1  0.12500000  0.81250000  0.87500000  1
  Ti  Ti735  1  0.12500000  0.81250000  0.93750000  1
  Ti  Ti736  1  0.12500000  0.87500000  0.00000000  1
  V  V737  1  0.12500000  0.87500000  0.06250000  1
  Cr  Cr738  1  0.12500000  0.87500000  0.12500000  1
  V  V739  1  0.12500000  0.87500000  0.18750000  1
  Cr  Cr740  1  0.12500000  0.87500000  0.25000000  1
  V  V741  1  0.12500000  0.87500000  0.31250000  1
  V  V742  1  0.12500000  0.87500000  0.37500000  1
  Cr  Cr743  1  0.12500000  0.87500000  0.43750000  1
  Cr  Cr744  1  0.12500000  0.87500000  0.50000000  1
  V  V745  1  0.12500000  0.87500000  0.56250000  1
  Cr  Cr746  1  0.12500000  0.87500000  0.62500000  1
  V  V747  1  0.12500000  0.87500000  0.68750000  1
  Ti  Ti748  1  0.12500000  0.87500000  0.75000000  1
  V  V749  1  0.12500000  0.87500000  0.81250000  1
  Cr  Cr750  1  0.12500000  0.87500000  0.87500000  1
  V  V751  1  0.12500000  0.87500000  0.93750000  1
  V  V752  1  0.12500000  0.93750000  0.00000000  1
  Cr  Cr753  1  0.12500000  0.93750000  0.06250000  1
  V  V754  1  0.12500000  0.93750000  0.12500000  1
  V  V755  1  0.12500000  0.93750000  0.18750000  1
  V  V756  1  0.12500000  0.93750000  0.25000000  1
  V  V757  1  0.12500000  0.93750000  0.31250000  1
  Cr  Cr758  1  0.12500000  0.93750000  0.37500000  1
  V  V759  1  0.12500000  0.93750000  0.43750000  1
  Cr  Cr760  1  0.12500000  0.93750000  0.50000000  1
  V  V761  1  0.12500000  0.93750000  0.56250000  1
  V  V762  1  0.12500000  0.93750000  0.62500000  1
  Cr  Cr763  1  0.12500000  0.93750000  0.68750000  1
  V  V764  1  0.12500000  0.93750000  0.75000000  1
  Cr  Cr765  1  0.12500000  0.93750000  0.81250000  1
  V  V766  1  0.12500000  0.93750000  0.87500000  1
  Cr  Cr767  1  0.12500000  0.93750000  0.93750000  1
  V  V768  1  0.18750000  0.00000000  0.00000000  1
  Cr  Cr769  1  0.18750000  0.00000000  0.06250000  1
  Cr  Cr770  1  0.18750000  0.00000000  0.12500000  1
  Cr  Cr771  1  0.18750000  0.00000000  0.18750000  1
  V  V772  1  0.18750000  0.00000000  0.25000000  1
  V  V773  1  0.18750000  0.00000000  0.31250000  1
  V  V774  1  0.18750000  0.00000000  0.37500000  1
  V  V775  1  0.18750000  0.00000000  0.43750000  1
  Cr  Cr776  1  0.18750000  0.00000000  0.50000000  1
  V  V777  1  0.18750000  0.00000000  0.56250000  1
  V  V778  1  0.18750000  0.00000000  0.62500000  1
  Cr  Cr779  1  0.18750000  0.00000000  0.68750000  1
  V  V780  1  0.18750000  0.00000000  0.75000000  1
  Cr  Cr781  1  0.18750000  0.00000000  0.81250000  1
  Cr  Cr782  1  0.18750000  0.00000000  0.87500000  1
  Cr  Cr783  1  0.18750000  0.00000000  0.93750000  1
  Cr  Cr784  1  0.18750000  0.06250000  0.00000000  1
  Cr  Cr785  1  0.18750000  0.06250000  0.06250000  1
  V  V786  1  0.18750000  0.06250000  0.12500000  1
  Cr  Cr787  1  0.18750000  0.06250000  0.18750000  1
  V  V788  1  0.18750000  0.06250000  0.25000000  1
  V  V789  1  0.18750000  0.06250000  0.31250000  1
  V  V790  1  0.18750000  0.06250000  0.37500000  1
  V  V791  1  0.18750000  0.06250000  0.43750000  1
  V  V792  1  0.18750000  0.06250000  0.50000000  1
  V  V793  1  0.18750000  0.06250000  0.56250000  1
  V  V794  1  0.18750000  0.06250000  0.62500000  1
  V  V795  1  0.18750000  0.06250000  0.68750000  1
  V  V796  1  0.18750000  0.06250000  0.75000000  1
  Cr  Cr797  1  0.18750000  0.06250000  0.81250000  1
  V  V798  1  0.18750000  0.06250000  0.87500000  1
  Cr  Cr799  1  0.18750000  0.06250000  0.93750000  1
  V  V800  1  0.18750000  0.12500000  0.00000000  1
  V  V801  1  0.18750000  0.12500000  0.06250000  1
  V  V802  1  0.18750000  0.12500000  0.12500000  1
  V  V803  1  0.18750000  0.12500000  0.18750000  1
  V  V804  1  0.18750000  0.12500000  0.25000000  1
  V  V805  1  0.18750000  0.12500000  0.31250000  1
  V  V806  1  0.18750000  0.12500000  0.37500000  1
  V  V807  1  0.18750000  0.12500000  0.43750000  1
  V  V808  1  0.18750000  0.12500000  0.50000000  1
  V  V809  1  0.18750000  0.12500000  0.56250000  1
  V  V810  1  0.18750000  0.12500000  0.62500000  1
  V  V811  1  0.18750000  0.12500000  0.68750000  1
  V  V812  1  0.18750000  0.12500000  0.75000000  1
  V  V813  1  0.18750000  0.12500000  0.81250000  1
  Cr  Cr814  1  0.18750000  0.12500000  0.87500000  1
  V  V815  1  0.18750000  0.12500000  0.93750000  1
  V  V816  1  0.18750000  0.18750000  0.00000000  1
  V  V817  1  0.18750000  0.18750000  0.06250000  1
  V  V818  1  0.18750000  0.18750000  0.12500000  1
  V  V819  1  0.18750000  0.18750000  0.18750000  1
  V  V820  1  0.18750000  0.18750000  0.25000000  1
  V  V821  1  0.18750000  0.18750000  0.31250000  1
  V  V822  1  0.18750000  0.18750000  0.37500000  1
  V  V823  1  0.18750000  0.18750000  0.43750000  1
  V  V824  1  0.18750000  0.18750000  0.50000000  1
  V  V825  1  0.18750000  0.18750000  0.56250000  1
  V  V826  1  0.18750000  0.18750000  0.62500000  1
  V  V827  1  0.18750000  0.18750000  0.68750000  1
  V  V828  1  0.18750000  0.18750000  0.75000000  1
  V  V829  1  0.18750000  0.18750000  0.81250000  1
  V  V830  1  0.18750000  0.18750000  0.87500000  1
  V  V831  1  0.18750000  0.18750000  0.93750000  1
  V  V832  1  0.18750000  0.25000000  0.00000000  1
  V  V833  1  0.18750000  0.25000000  0.06250000  1
  V  V834  1  0.18750000  0.25000000  0.12500000  1
  V  V835  1  0.18750000  0.25000000  0.18750000  1
  V  V836  1  0.18750000  0.25000000  0.25000000  1
  V  V837  1  0.18750000  0.25000000  0.31250000  1
  V  V838  1  0.18750000  0.25000000  0.37500000  1
  V  V839  1  0.18750000  0.25000000  0.43750000  1
  V  V840  1  0.18750000  0.25000000  0.50000000  1
  V  V841  1  0.18750000  0.25000000  0.56250000  1
  V  V842  1  0.18750000  0.25000000  0.62500000  1
  V  V843  1  0.18750000  0.25000000  0.68750000  1
  V  V844  1  0.18750000  0.25000000  0.75000000  1
  V  V845  1  0.18750000  0.25000000  0.81250000  1
  V  V846  1  0.18750000  0.25000000  0.87500000  1
  V  V847  1  0.18750000  0.25000000  0.93750000  1
  V  V848  1  0.18750000  0.31250000  0.00000000  1
  V  V849  1  0.18750000  0.31250000  0.06250000  1
  V  V850  1  0.18750000  0.31250000  0.12500000  1
  V  V851  1  0.18750000  0.31250000  0.18750000  1
  V  V852  1  0.18750000  0.31250000  0.25000000  1
  V  V853  1  0.18750000  0.31250000  0.31250000  1
  V  V854  1  0.18750000  0.31250000  0.37500000  1
  V  V855  1  0.18750000  0.31250000  0.43750000  1
  V  V856  1  0.18750000  0.31250000  0.50000000  1
  V  V857  1  0.18750000  0.31250000  0.56250000  1
  V  V858  1  0.18750000  0.31250000  0.62500000  1
  V  V859  1  0.18750000  0.31250000  0.68750000  1
  V  V860  1  0.18750000  0.31250000  0.75000000  1
  V  V861  1  0.18750000  0.31250000  0.81250000  1
  V  V862  1  0.18750000  0.31250000  0.87500000  1
  V  V863  1  0.18750000  0.31250000  0.93750000  1
  V  V864  1  0.18750000  0.37500000  0.00000000  1
  V  V865  1  0.18750000  0.37500000  0.06250000  1
  V  V866  1  0.18750000  0.37500000  0.12500000  1
  V  V867  1  0.18750000  0.37500000  0.18750000  1
  V  V868  1  0.18750000  0.37500000  0.25000000  1
  V  V869  1  0.18750000  0.37500000  0.31250000  1
  V  V870  1  0.18750000  0.37500000  0.37500000  1
  V  V871  1  0.18750000  0.37500000  0.43750000  1
  V  V872  1  0.18750000  0.37500000  0.50000000  1
  V  V873  1  0.18750000  0.37500000  0.56250000  1
  V  V874  1  0.18750000  0.37500000  0.62500000  1
  V  V875  1  0.18750000  0.37500000  0.68750000  1
  V  V876  1  0.18750000  0.37500000  0.75000000  1
  V  V877  1  0.18750000  0.37500000  0.81250000  1
  V  V878  1  0.18750000  0.37500000  0.87500000  1
  V  V879  1  0.18750000  0.37500000  0.93750000  1
  V  V880  1  0.18750000  0.43750000  0.00000000  1
  V  V881  1  0.18750000  0.43750000  0.06250000  1
  V  V882  1  0.18750000  0.43750000  0.12500000  1
  V  V883  1  0.18750000  0.43750000  0.18750000  1
  V  V884  1  0.18750000  0.43750000  0.25000000  1
  V  V885  1  0.18750000  0.43750000  0.31250000  1
  V  V886  1  0.18750000  0.43750000  0.37500000  1
  V  V887  1  0.18750000  0.43750000  0.43750000  1
  V  V888  1  0.18750000  0.43750000  0.50000000  1
  V  V889  1  0.18750000  0.43750000  0.56250000  1
  V  V890  1  0.18750000  0.43750000  0.62500000  1
  V  V891  1  0.18750000  0.43750000  0.68750000  1
  V  V892  1  0.18750000  0.43750000  0.75000000  1
  V  V893  1  0.18750000  0.43750000  0.81250000  1
  V  V894  1  0.18750000  0.43750000  0.87500000  1
  V  V895  1  0.18750000  0.43750000  0.93750000  1
  V  V896  1  0.18750000  0.50000000  0.00000000  1
  V  V897  1  0.18750000  0.50000000  0.06250000  1
  V  V898  1  0.18750000  0.50000000  0.12500000  1
  V  V899  1  0.18750000  0.50000000  0.18750000  1
  V  V900  1  0.18750000  0.50000000  0.25000000  1
  V  V901  1  0.18750000  0.50000000  0.31250000  1
  V  V902  1  0.18750000  0.50000000  0.37500000  1
  V  V903  1  0.18750000  0.50000000  0.43750000  1
  V  V904  1  0.18750000  0.50000000  0.50000000  1
  V  V905  1  0.18750000  0.50000000  0.56250000  1
  V  V906  1  0.18750000  0.50000000  0.62500000  1
  V  V907  1  0.18750000  0.50000000  0.68750000  1
  V  V908  1  0.18750000  0.50000000  0.75000000  1
  Cr  Cr909  1  0.18750000  0.50000000  0.81250000  1
  V  V910  1  0.18750000  0.50000000  0.87500000  1
  V  V911  1  0.18750000  0.50000000  0.93750000  1
  Cr  Cr912  1  0.18750000  0.56250000  0.00000000  1
  V  V913  1  0.18750000  0.56250000  0.06250000  1
  V  V914  1  0.18750000  0.56250000  0.12500000  1
  V  V915  1  0.18750000  0.56250000  0.18750000  1
  V  V916  1  0.18750000  0.56250000  0.25000000  1
  V  V917  1  0.18750000  0.56250000  0.31250000  1
  V  V918  1  0.18750000  0.56250000  0.37500000  1
  V  V919  1  0.18750000  0.56250000  0.43750000  1
  V  V920  1  0.18750000  0.56250000  0.50000000  1
  V  V921  1  0.18750000  0.56250000  0.56250000  1
  V  V922  1  0.18750000  0.56250000  0.62500000  1
  Cr  Cr923  1  0.18750000  0.56250000  0.68750000  1
  Cr  Cr924  1  0.18750000  0.56250000  0.75000000  1
  V  V925  1  0.18750000  0.56250000  0.81250000  1
  Ti  Ti926  1  0.18750000  0.56250000  0.87500000  1
  V  V927  1  0.18750000  0.56250000  0.93750000  1
  V  V928  1  0.18750000  0.62500000  0.00000000  1
  Ti  Ti929  1  0.18750000  0.62500000  0.06250000  1
  V  V930  1  0.18750000  0.62500000  0.12500000  1
  V  V931  1  0.18750000  0.62500000  0.18750000  1
  V  V932  1  0.18750000  0.62500000  0.25000000  1
  V  V933  1  0.18750000  0.62500000  0.31250000  1
  Cr  Cr934  1  0.18750000  0.62500000  0.37500000  1
  V  V935  1  0.18750000  0.62500000  0.43750000  1
  V  V936  1  0.18750000  0.62500000  0.50000000  1
  V  V937  1  0.18750000  0.62500000  0.56250000  1
  V  V938  1  0.18750000  0.62500000  0.62500000  1
  Cr  Cr939  1  0.18750000  0.62500000  0.68750000  1
  V  V940  1  0.18750000  0.62500000  0.75000000  1
  Ti  Ti941  1  0.18750000  0.62500000  0.81250000  1
  V  V942  1  0.18750000  0.62500000  0.87500000  1
  Ti  Ti943  1  0.18750000  0.62500000  0.93750000  1
  Ti  Ti944  1  0.18750000  0.68750000  0.00000000  1
  V  V945  1  0.18750000  0.68750000  0.06250000  1
  Cr  Cr946  1  0.18750000  0.68750000  0.12500000  1
  Cr  Cr947  1  0.18750000  0.68750000  0.18750000  1
  V  V948  1  0.18750000  0.68750000  0.25000000  1
  V  V949  1  0.18750000  0.68750000  0.31250000  1
  V  V950  1  0.18750000  0.68750000  0.37500000  1
  Cr  Cr951  1  0.18750000  0.68750000  0.43750000  1
  Cr  Cr952  1  0.18750000  0.68750000  0.50000000  1
  V  V953  1  0.18750000  0.68750000  0.56250000  1
  Ti  Ti954  1  0.18750000  0.68750000  0.62500000  1
  V  V955  1  0.18750000  0.68750000  0.68750000  1
  Ti  Ti956  1  0.18750000  0.68750000  0.75000000  1
  V  V957  1  0.18750000  0.68750000  0.81250000  1
  Ti  Ti958  1  0.18750000  0.68750000  0.87500000  1
  V  V959  1  0.18750000  0.68750000  0.93750000  1
  V  V960  1  0.18750000  0.75000000  0.00000000  1
  Ti  Ti961  1  0.18750000  0.75000000  0.06250000  1
  V  V962  1  0.18750000  0.75000000  0.12500000  1
  Cr  Cr963  1  0.18750000  0.75000000  0.18750000  1
  V  V964  1  0.18750000  0.75000000  0.25000000  1
  Cr  Cr965  1  0.18750000  0.75000000  0.31250000  1
  Cr  Cr966  1  0.18750000  0.75000000  0.37500000  1
  Cr  Cr967  1  0.18750000  0.75000000  0.43750000  1
  Cr  Cr968  1  0.18750000  0.75000000  0.50000000  1
  Cr  Cr969  1  0.18750000  0.75000000  0.56250000  1
  V  V970  1  0.18750000  0.75000000  0.62500000  1
  Ti  Ti971  1  0.18750000  0.75000000  0.68750000  1
  V  V972  1  0.18750000  0.75000000  0.75000000  1
  Ti  Ti973  1  0.18750000  0.75000000  0.81250000  1
  V  V974  1  0.18750000  0.75000000  0.87500000  1
  Ti  Ti975  1  0.18750000  0.75000000  0.93750000  1
  Ti  Ti976  1  0.18750000  0.81250000  0.00000000  1
  V  V977  1  0.18750000  0.81250000  0.06250000  1
  Ti  Ti978  1  0.18750000  0.81250000  0.12500000  1
  V  V979  1  0.18750000  0.81250000  0.18750000  1
  Cr  Cr980  1  0.18750000  0.81250000  0.25000000  1
  Cr  Cr981  1  0.18750000  0.81250000  0.31250000  1
  V  V982  1  0.18750000  0.81250000  0.37500000  1
  Cr  Cr983  1  0.18750000  0.81250000  0.43750000  1
  V  V984  1  0.18750000  0.81250000  0.50000000  1
  V  V985  1  0.18750000  0.81250000  0.56250000  1
  Ti  Ti986  1  0.18750000  0.81250000  0.62500000  1
  V  V987  1  0.18750000  0.81250000  0.68750000  1
  Ti  Ti988  1  0.18750000  0.81250000  0.75000000  1
  V  V989  1  0.18750000  0.81250000  0.81250000  1
  Ti  Ti990  1  0.18750000  0.81250000  0.87500000  1
  V  V991  1  0.18750000  0.81250000  0.93750000  1
  V  V992  1  0.18750000  0.87500000  0.00000000  1
  Ti  Ti993  1  0.18750000  0.87500000  0.06250000  1
  V  V994  1  0.18750000  0.87500000  0.12500000  1
  V  V995  1  0.18750000  0.87500000  0.18750000  1
  Cr  Cr996  1  0.18750000  0.87500000  0.25000000  1
  V  V997  1  0.18750000  0.87500000  0.31250000  1
  Cr  Cr998  1  0.18750000  0.87500000  0.37500000  1
  Cr  Cr999  1  0.18750000  0.87500000  0.43750000  1
  Cr  Cr1000  1  0.18750000  0.87500000  0.50000000  1
  Cr  Cr1001  1  0.18750000  0.87500000  0.56250000  1
  V  V1002  1  0.18750000  0.87500000  0.62500000  1
  Ti  Ti1003  1  0.18750000  0.87500000  0.68750000  1
  V  V1004  1  0.18750000  0.87500000  0.75000000  1
  Ti  Ti1005  1  0.18750000  0.87500000  0.81250000  1
  V  V1006  1  0.18750000  0.87500000  0.87500000  1
  Ti  Ti1007  1  0.18750000  0.87500000  0.93750000  1
  Ti  Ti1008  1  0.18750000  0.93750000  0.00000000  1
  V  V1009  1  0.18750000  0.93750000  0.06250000  1
  Cr  Cr1010  1  0.18750000  0.93750000  0.12500000  1
  Cr  Cr1011  1  0.18750000  0.93750000  0.18750000  1
  Cr  Cr1012  1  0.18750000  0.93750000  0.25000000  1
  V  V1013  1  0.18750000  0.93750000  0.31250000  1
  Cr  Cr1014  1  0.18750000  0.93750000  0.37500000  1
  Cr  Cr1015  1  0.18750000  0.93750000  0.43750000  1
  V  V1016  1  0.18750000  0.93750000  0.50000000  1
  V  V1017  1  0.18750000  0.93750000  0.56250000  1
  Cr  Cr1018  1  0.18750000  0.93750000  0.62500000  1
  V  V1019  1  0.18750000  0.93750000  0.68750000  1
  Cr  Cr1020  1  0.18750000  0.93750000  0.75000000  1
  V  V1021  1  0.18750000  0.93750000  0.81250000  1
  Cr  Cr1022  1  0.18750000  0.93750000  0.87500000  1
  V  V1023  1  0.18750000  0.93750000  0.93750000  1
  Cr  Cr1024  1  0.25000000  0.00000000  0.00000000  1
  V  V1025  1  0.25000000  0.00000000  0.06250000  1
  Cr  Cr1026  1  0.25000000  0.00000000  0.12500000  1
  V  V1027  1  0.25000000  0.00000000  0.18750000  1
  V  V1028  1  0.25000000  0.00000000  0.25000000  1
  Cr  Cr1029  1  0.25000000  0.00000000  0.31250000  1
  Cr  Cr1030  1  0.25000000  0.00000000  0.37500000  1
  V  V1031  1  0.25000000  0.00000000  0.43750000  1
  V  V1032  1  0.25000000  0.00000000  0.50000000  1
  Cr  Cr1033  1  0.25000000  0.00000000  0.56250000  1
  V  V1034  1  0.25000000  0.00000000  0.62500000  1
  V  V1035  1  0.25000000  0.00000000  0.68750000  1
  Cr  Cr1036  1  0.25000000  0.00000000  0.75000000  1
  V  V1037  1  0.25000000  0.00000000  0.81250000  1
  Cr  Cr1038  1  0.25000000  0.00000000  0.87500000  1
  V  V1039  1  0.25000000  0.00000000  0.93750000  1
  Cr  Cr1040  1  0.25000000  0.06250000  0.00000000  1
  V  V1041  1  0.25000000  0.06250000  0.06250000  1
  V  V1042  1  0.25000000  0.06250000  0.12500000  1
  V  V1043  1  0.25000000  0.06250000  0.18750000  1
  V  V1044  1  0.25000000  0.06250000  0.25000000  1
  V  V1045  1  0.25000000  0.06250000  0.31250000  1
  V  V1046  1  0.25000000  0.06250000  0.37500000  1
  Cr  Cr1047  1  0.25000000  0.06250000  0.43750000  1
  V  V1048  1  0.25000000  0.06250000  0.50000000  1
  V  V1049  1  0.25000000  0.06250000  0.56250000  1
  V  V1050  1  0.25000000  0.06250000  0.62500000  1
  V  V1051  1  0.25000000  0.06250000  0.68750000  1
  V  V1052  1  0.25000000  0.06250000  0.75000000  1
  Cr  Cr1053  1  0.25000000  0.06250000  0.81250000  1
  V  V1054  1  0.25000000  0.06250000  0.87500000  1
  V  V1055  1  0.25000000  0.06250000  0.93750000  1
  V  V1056  1  0.25000000  0.12500000  0.00000000  1
  Cr  Cr1057  1  0.25000000  0.12500000  0.06250000  1
  V  V1058  1  0.25000000  0.12500000  0.12500000  1
  V  V1059  1  0.25000000  0.12500000  0.18750000  1
  V  V1060  1  0.25000000  0.12500000  0.25000000  1
  V  V1061  1  0.25000000  0.12500000  0.31250000  1
  V  V1062  1  0.25000000  0.12500000  0.37500000  1
  V  V1063  1  0.25000000  0.12500000  0.43750000  1
  V  V1064  1  0.25000000  0.12500000  0.50000000  1
  V  V1065  1  0.25000000  0.12500000  0.56250000  1
  V  V1066  1  0.25000000  0.12500000  0.62500000  1
  V  V1067  1  0.25000000  0.12500000  0.68750000  1
  V  V1068  1  0.25000000  0.12500000  0.75000000  1
  V  V1069  1  0.25000000  0.12500000  0.81250000  1
  Cr  Cr1070  1  0.25000000  0.12500000  0.87500000  1
  V  V1071  1  0.25000000  0.12500000  0.93750000  1
  V  V1072  1  0.25000000  0.18750000  0.00000000  1
  V  V1073  1  0.25000000  0.18750000  0.06250000  1
  V  V1074  1  0.25000000  0.18750000  0.12500000  1
  V  V1075  1  0.25000000  0.18750000  0.18750000  1
  V  V1076  1  0.25000000  0.18750000  0.25000000  1
  V  V1077  1  0.25000000  0.18750000  0.31250000  1
  V  V1078  1  0.25000000  0.18750000  0.37500000  1
  V  V1079  1  0.25000000  0.18750000  0.43750000  1
  V  V1080  1  0.25000000  0.18750000  0.50000000  1
  V  V1081  1  0.25000000  0.18750000  0.56250000  1
  V  V1082  1  0.25000000  0.18750000  0.62500000  1
  V  V1083  1  0.25000000  0.18750000  0.68750000  1
  V  V1084  1  0.25000000  0.18750000  0.75000000  1
  V  V1085  1  0.25000000  0.18750000  0.81250000  1
  Cr  Cr1086  1  0.25000000  0.18750000  0.87500000  1
  V  V1087  1  0.25000000  0.18750000  0.93750000  1
  V  V1088  1  0.25000000  0.25000000  0.00000000  1
  V  V1089  1  0.25000000  0.25000000  0.06250000  1
  V  V1090  1  0.25000000  0.25000000  0.12500000  1
  V  V1091  1  0.25000000  0.25000000  0.18750000  1
  V  V1092  1  0.25000000  0.25000000  0.25000000  1
  V  V1093  1  0.25000000  0.25000000  0.31250000  1
  V  V1094  1  0.25000000  0.25000000  0.37500000  1
  V  V1095  1  0.25000000  0.25000000  0.43750000  1
  V  V1096  1  0.25000000  0.25000000  0.50000000  1
  V  V1097  1  0.25000000  0.25000000  0.56250000  1
  V  V1098  1  0.25000000  0.25000000  0.62500000  1
  V  V1099  1  0.25000000  0.25000000  0.68750000  1
  V  V1100  1  0.25000000  0.25000000  0.75000000  1
  V  V1101  1  0.25000000  0.25000000  0.81250000  1
  V  V1102  1  0.25000000  0.25000000  0.87500000  1
  V  V1103  1  0.25000000  0.25000000  0.93750000  1
  V  V1104  1  0.25000000  0.31250000  0.00000000  1
  V  V1105  1  0.25000000  0.31250000  0.06250000  1
  V  V1106  1  0.25000000  0.31250000  0.12500000  1
  V  V1107  1  0.25000000  0.31250000  0.18750000  1
  V  V1108  1  0.25000000  0.31250000  0.25000000  1
  V  V1109  1  0.25000000  0.31250000  0.31250000  1
  V  V1110  1  0.25000000  0.31250000  0.37500000  1
  V  V1111  1  0.25000000  0.31250000  0.43750000  1
  V  V1112  1  0.25000000  0.31250000  0.50000000  1
  V  V1113  1  0.25000000  0.31250000  0.56250000  1
  V  V1114  1  0.25000000  0.31250000  0.62500000  1
  V  V1115  1  0.25000000  0.31250000  0.68750000  1
  V  V1116  1  0.25000000  0.31250000  0.75000000  1
  V  V1117  1  0.25000000  0.31250000  0.81250000  1
  V  V1118  1  0.25000000  0.31250000  0.87500000  1
  V  V1119  1  0.25000000  0.31250000  0.93750000  1
  V  V1120  1  0.25000000  0.37500000  0.00000000  1
  V  V1121  1  0.25000000  0.37500000  0.06250000  1
  V  V1122  1  0.25000000  0.37500000  0.12500000  1
  V  V1123  1  0.25000000  0.37500000  0.18750000  1
  V  V1124  1  0.25000000  0.37500000  0.25000000  1
  V  V1125  1  0.25000000  0.37500000  0.31250000  1
  V  V1126  1  0.25000000  0.37500000  0.37500000  1
  V  V1127  1  0.25000000  0.37500000  0.43750000  1
  V  V1128  1  0.25000000  0.37500000  0.50000000  1
  V  V1129  1  0.25000000  0.37500000  0.56250000  1
  V  V1130  1  0.25000000  0.37500000  0.62500000  1
  V  V1131  1  0.25000000  0.37500000  0.68750000  1
  V  V1132  1  0.25000000  0.37500000  0.75000000  1
  V  V1133  1  0.25000000  0.37500000  0.81250000  1
  V  V1134  1  0.25000000  0.37500000  0.87500000  1
  V  V1135  1  0.25000000  0.37500000  0.93750000  1
  V  V1136  1  0.25000000  0.43750000  0.00000000  1
  V  V1137  1  0.25000000  0.43750000  0.06250000  1
  V  V1138  1  0.25000000  0.43750000  0.12500000  1
  V  V1139  1  0.25000000  0.43750000  0.18750000  1
  V  V1140  1  0.25000000  0.43750000  0.25000000  1
  V  V1141  1  0.25000000  0.43750000  0.31250000  1
  V  V1142  1  0.25000000  0.43750000  0.37500000  1
  V  V1143  1  0.25000000  0.43750000  0.43750000  1
  V  V1144  1  0.25000000  0.43750000  0.50000000  1
  V  V1145  1  0.25000000  0.43750000  0.56250000  1
  V  V1146  1  0.25000000  0.43750000  0.62500000  1
  V  V1147  1  0.25000000  0.43750000  0.68750000  1
  V  V1148  1  0.25000000  0.43750000  0.75000000  1
  V  V1149  1  0.25000000  0.43750000  0.81250000  1
  V  V1150  1  0.25000000  0.43750000  0.87500000  1
  V  V1151  1  0.25000000  0.43750000  0.93750000  1
  V  V1152  1  0.25000000  0.50000000  0.00000000  1
  V  V1153  1  0.25000000  0.50000000  0.06250000  1
  V  V1154  1  0.25000000  0.50000000  0.12500000  1
  V  V1155  1  0.25000000  0.50000000  0.18750000  1
  V  V1156  1  0.25000000  0.50000000  0.25000000  1
  V  V1157  1  0.25000000  0.50000000  0.31250000  1
  V  V1158  1  0.25000000  0.50000000  0.37500000  1
  V  V1159  1  0.25000000  0.50000000  0.43750000  1
  V  V1160  1  0.25000000  0.50000000  0.50000000  1
  V  V1161  1  0.25000000  0.50000000  0.56250000  1
  V  V1162  1  0.25000000  0.50000000  0.62500000  1
  V  V1163  1  0.25000000  0.50000000  0.68750000  1
  V  V1164  1  0.25000000  0.50000000  0.75000000  1
  V  V1165  1  0.25000000  0.50000000  0.81250000  1
  V  V1166  1  0.25000000  0.50000000  0.87500000  1
  V  V1167  1  0.25000000  0.50000000  0.93750000  1
  V  V1168  1  0.25000000  0.56250000  0.00000000  1
  Cr  Cr1169  1  0.25000000  0.56250000  0.06250000  1
  V  V1170  1  0.25000000  0.56250000  0.12500000  1
  V  V1171  1  0.25000000  0.56250000  0.18750000  1
  V  V1172  1  0.25000000  0.56250000  0.25000000  1
  V  V1173  1  0.25000000  0.56250000  0.31250000  1
  V  V1174  1  0.25000000  0.56250000  0.37500000  1
  V  V1175  1  0.25000000  0.56250000  0.43750000  1
  V  V1176  1  0.25000000  0.56250000  0.50000000  1
  V  V1177  1  0.25000000  0.56250000  0.56250000  1
  V  V1178  1  0.25000000  0.56250000  0.62500000  1
  V  V1179  1  0.25000000  0.56250000  0.68750000  1
  V  V1180  1  0.25000000  0.56250000  0.75000000  1
  Cr  Cr1181  1  0.25000000  0.56250000  0.81250000  1
  V  V1182  1  0.25000000  0.56250000  0.87500000  1
  Ti  Ti1183  1  0.25000000  0.56250000  0.93750000  1
  Ti  Ti1184  1  0.25000000  0.62500000  0.00000000  1
  V  V1185  1  0.25000000  0.62500000  0.06250000  1
  Cr  Cr1186  1  0.25000000  0.62500000  0.12500000  1
  V  V1187  1  0.25000000  0.62500000  0.18750000  1
  V  V1188  1  0.25000000  0.62500000  0.25000000  1
  V  V1189  1  0.25000000  0.62500000  0.31250000  1
  V  V1190  1  0.25000000  0.62500000  0.37500000  1
  Cr  Cr1191  1  0.25000000  0.62500000  0.43750000  1
  V  V1192  1  0.25000000  0.62500000  0.50000000  1
  V  V1193  1  0.25000000  0.62500000  0.56250000  1
  Cr  Cr1194  1  0.25000000  0.62500000  0.62500000  1
  V  V1195  1  0.25000000  0.62500000  0.68750000  1
  Cr  Cr1196  1  0.25000000  0.62500000  0.75000000  1
  V  V1197  1  0.25000000  0.62500000  0.81250000  1
  Ti  Ti1198  1  0.25000000  0.62500000  0.87500000  1
  V  V1199  1  0.25000000  0.62500000  0.93750000  1
  V  V1200  1  0.25000000  0.68750000  0.00000000  1
  Ti  Ti1201  1  0.25000000  0.68750000  0.06250000  1
  V  V1202  1  0.25000000  0.68750000  0.12500000  1
  Cr  Cr1203  1  0.25000000  0.68750000  0.18750000  1
  V  V1204  1  0.25000000  0.68750000  0.25000000  1
  V  V1205  1  0.25000000  0.68750000  0.31250000  1
  Cr  Cr1206  1  0.25000000  0.68750000  0.37500000  1
  V  V1207  1  0.25000000  0.68750000  0.43750000  1
  Cr  Cr1208  1  0.25000000  0.68750000  0.50000000  1
  Cr  Cr1209  1  0.25000000  0.68750000  0.56250000  1
  V  V1210  1  0.25000000  0.68750000  0.62500000  1
  Ti  Ti1211  1  0.25000000  0.68750000  0.68750000  1
  V  V1212  1  0.25000000  0.68750000  0.75000000  1
  Ti  Ti1213  1  0.25000000  0.68750000  0.81250000  1
  V  V1214  1  0.25000000  0.68750000  0.87500000  1
  Ti  Ti1215  1  0.25000000  0.68750000  0.93750000  1
  Ti  Ti1216  1  0.25000000  0.75000000  0.00000000  1
  V  V1217  1  0.25000000  0.75000000  0.06250000  1
  Ti  Ti1218  1  0.25000000  0.75000000  0.12500000  1
  V  V1219  1  0.25000000  0.75000000  0.18750000  1
  Cr  Cr1220  1  0.25000000  0.75000000  0.25000000  1
  V  V1221  1  0.25000000  0.75000000  0.31250000  1
  Cr  Cr1222  1  0.25000000  0.75000000  0.37500000  1
  V  V1223  1  0.25000000  0.75000000  0.43750000  1
  V  V1224  1  0.25000000  0.75000000  0.50000000  1
  V  V1225  1  0.25000000  0.75000000  0.56250000  1
  Cr  Cr1226  1  0.25000000  0.75000000  0.62500000  1
  V  V1227  1  0.25000000  0.75000000  0.68750000  1
  Ti  Ti1228  1  0.25000000  0.75000000  0.75000000  1
  V  V1229  1  0.25000000  0.75000000  0.81250000  1
  Ti  Ti1230  1  0.25000000  0.75000000  0.87500000  1
  V  V1231  1  0.25000000  0.75000000  0.93750000  1
  V  V1232  1  0.25000000  0.81250000  0.00000000  1
  Ti  Ti1233  1  0.25000000  0.81250000  0.06250000  1
  V  V1234  1  0.25000000  0.81250000  0.12500000  1
  Ti  Ti1235  1  0.25000000  0.81250000  0.18750000  1
  V  V1236  1  0.25000000  0.81250000  0.25000000  1
  Cr  Cr1237  1  0.25000000  0.81250000  0.31250000  1
  V  V1238  1  0.25000000  0.81250000  0.37500000  1
  Cr  Cr1239  1  0.25000000  0.81250000  0.43750000  1
  Cr  Cr1240  1  0.25000000  0.81250000  0.50000000  1
  Cr  Cr1241  1  0.25000000  0.81250000  0.56250000  1
  V  V1242  1  0.25000000  0.81250000  0.62500000  1
  Ti  Ti1243  1  0.25000000  0.81250000  0.68750000  1
  V  V1244  1  0.25000000  0.81250000  0.75000000  1
  Ti  Ti1245  1  0.25000000  0.81250000  0.81250000  1
  V  V1246  1  0.25000000  0.81250000  0.87500000  1
  Ti  Ti1247  1  0.25000000  0.81250000  0.93750000  1
  Ti  Ti1248  1  0.25000000  0.87500000  0.00000000  1
  V  V1249  1  0.25000000  0.87500000  0.06250000  1
  Ti  Ti1250  1  0.25000000  0.87500000  0.12500000  1
  V  V1251  1  0.25000000  0.87500000  0.18750000  1
  Cr  Cr1252  1  0.25000000  0.87500000  0.25000000  1
  Cr  Cr1253  1  0.25000000  0.87500000  0.31250000  1
  V  V1254  1  0.25000000  0.87500000  0.37500000  1
  Cr  Cr1255  1  0.25000000  0.87500000  0.43750000  1
  V  V1256  1  0.25000000  0.87500000  0.50000000  1
  V  V1257  1  0.25000000  0.87500000  0.56250000  1
  Ti  Ti1258  1  0.25000000  0.87500000  0.62500000  1
  V  V1259  1  0.25000000  0.87500000  0.68750000  1
  Ti  Ti1260  1  0.25000000  0.87500000  0.75000000  1
  V  V1261  1  0.25000000  0.87500000  0.81250000  1
  Ti  Ti1262  1  0.25000000  0.87500000  0.87500000  1
  V  V1263  1  0.25000000  0.87500000  0.93750000  1
  V  V1264  1  0.25000000  0.93750000  0.00000000  1
  Ti  Ti1265  1  0.25000000  0.93750000  0.06250000  1
  V  V1266  1  0.25000000  0.93750000  0.12500000  1
  Cr  Cr1267  1  0.25000000  0.93750000  0.18750000  1
  Cr  Cr1268  1  0.25000000  0.93750000  0.25000000  1
  V  V1269  1  0.25000000  0.93750000  0.31250000  1
  Cr  Cr1270  1  0.25000000  0.93750000  0.37500000  1
  V  V1271  1  0.25000000  0.93750000  0.43750000  1
  Cr  Cr1272  1  0.25000000  0.93750000  0.50000000  1
  Cr  Cr1273  1  0.25000000  0.93750000  0.56250000  1
  V  V1274  1  0.25000000  0.93750000  0.62500000  1
  Cr  Cr1275  1  0.25000000  0.93750000  0.68750000  1
  V  V1276  1  0.25000000  0.93750000  0.75000000  1
  Ti  Ti1277  1  0.25000000  0.93750000  0.81250000  1
  V  V1278  1  0.25000000  0.93750000  0.87500000  1
  Ti  Ti1279  1  0.25000000  0.93750000  0.93750000  1
  V  V1280  1  0.31250000  0.00000000  0.00000000  1
  Ti  Ti1281  1  0.31250000  0.00000000  0.06250000  1
  V  V1282  1  0.31250000  0.00000000  0.12500000  1
  Ti  Ti1283  1  0.31250000  0.00000000  0.18750000  1
  V  V1284  1  0.31250000  0.00000000  0.25000000  1
  Cr  Cr1285  1  0.31250000  0.00000000  0.31250000  1
  V  V1286  1  0.31250000  0.00000000  0.37500000  1
  Cr  Cr1287  1  0.31250000  0.00000000  0.43750000  1
  Cr  Cr1288  1  0.31250000  0.00000000  0.50000000  1
  Cr  Cr1289  1  0.31250000  0.00000000  0.56250000  1
  V  V1290  1  0.31250000  0.00000000  0.62500000  1
  Ti  Ti1291  1  0.31250000  0.00000000  0.68750000  1
  V  V1292  1  0.31250000  0.00000000  0.75000000  1
  Ti  Ti1293  1  0.31250000  0.00000000  0.81250000  1
  V  V1294  1  0.31250000  0.00000000  0.87500000  1
  Ti  Ti1295  1  0.31250000  0.00000000  0.93750000  1
  Cr  Cr1296  1  0.31250000  0.06250000  0.00000000  1
  V  V1297  1  0.31250000  0.06250000  0.06250000  1
  Cr  Cr1298  1  0.31250000  0.06250000  0.12500000  1
  V  V1299  1  0.31250000  0.06250000  0.18750000  1
  V  V1300  1  0.31250000  0.06250000  0.25000000  1
  V  V1301  1  0.31250000  0.06250000  0.31250000  1
  Cr  Cr1302  1  0.31250000  0.06250000  0.37500000  1
  Cr  Cr1303  1  0.31250000  0.06250000  0.43750000  1
  V  V1304  1  0.31250000  0.06250000  0.50000000  1
  Cr  Cr1305  1  0.31250000  0.06250000  0.56250000  1
  V  V1306  1  0.31250000  0.06250000  0.62500000  1
  V  V1307  1  0.31250000  0.06250000  0.68750000  1
  Cr  Cr1308  1  0.31250000  0.06250000  0.75000000  1
  V  V1309  1  0.31250000  0.06250000  0.81250000  1
  Ti  Ti1310  1  0.31250000  0.06250000  0.87500000  1
  V  V1311  1  0.31250000  0.06250000  0.93750000  1
  V  V1312  1  0.31250000  0.12500000  0.00000000  1
  Cr  Cr1313  1  0.31250000  0.12500000  0.06250000  1
  Cr  Cr1314  1  0.31250000  0.12500000  0.12500000  1
  V  V1315  1  0.31250000  0.12500000  0.18750000  1
  V  V1316  1  0.31250000  0.12500000  0.25000000  1
  V  V1317  1  0.31250000  0.12500000  0.31250000  1
  V  V1318  1  0.31250000  0.12500000  0.37500000  1
  V  V1319  1  0.31250000  0.12500000  0.43750000  1
  V  V1320  1  0.31250000  0.12500000  0.50000000  1
  V  V1321  1  0.31250000  0.12500000  0.56250000  1
  V  V1322  1  0.31250000  0.12500000  0.62500000  1
  V  V1323  1  0.31250000  0.12500000  0.68750000  1
  V  V1324  1  0.31250000  0.12500000  0.75000000  1
  Cr  Cr1325  1  0.31250000  0.12500000  0.81250000  1
  V  V1326  1  0.31250000  0.12500000  0.87500000  1
  Cr  Cr1327  1  0.31250000  0.12500000  0.93750000  1
  V  V1328  1  0.31250000  0.18750000  0.00000000  1
  V  V1329  1  0.31250000  0.18750000  0.06250000  1
  V  V1330  1  0.31250000  0.18750000  0.12500000  1
  V  V1331  1  0.31250000  0.18750000  0.18750000  1
  V  V1332  1  0.31250000  0.18750000  0.25000000  1
  V  V1333  1  0.31250000  0.18750000  0.31250000  1
  V  V1334  1  0.31250000  0.18750000  0.37500000  1
  V  V1335  1  0.31250000  0.18750000  0.43750000  1
  V  V1336  1  0.31250000  0.18750000  0.50000000  1
  V  V1337  1  0.31250000  0.18750000  0.56250000  1
  V  V1338  1  0.31250000  0.18750000  0.62500000  1
  V  V1339  1  0.31250000  0.18750000  0.68750000  1
  V  V1340  1  0.31250000  0.18750000  0.75000000  1
  V  V1341  1  0.31250000  0.18750000  0.81250000  1
  Cr  Cr1342  1  0.31250000  0.18750000  0.87500000  1
  V  V1343  1  0.31250000  0.18750000  0.93750000  1
  V  V1344  1  0.31250000  0.25000000  0.00000000  1
  V  V1345  1  0.31250000  0.25000000  0.06250000  1
  V  V1346  1  0.31250000  0.25000000  0.12500000  1
  V  V1347  1  0.31250000  0.25000000  0.18750000  1
  V  V1348  1  0.31250000  0.25000000  0.25000000  1
  V  V1349  1  0.31250000  0.25000000  0.31250000  1
  V  V1350  1  0.31250000  0.25000000  0.37500000  1
  V  V1351  1  0.31250000  0.25000000  0.43750000  1
  V  V1352  1  0.31250000  0.25000000  0.50000000  1
  V  V1353  1  0.31250000  0.25000000  0.56250000  1
  V  V1354  1  0.31250000  0.25000000  0.62500000  1
  V  V1355  1  0.31250000  0.25000000  0.68750000  1
  V  V1356  1  0.31250000  0.25000000  0.75000000  1
  V  V1357  1  0.31250000  0.25000000  0.81250000  1
  V  V1358  1  0.31250000  0.25000000  0.87500000  1
  V  V1359  1  0.31250000  0.25000000  0.93750000  1
  V  V1360  1  0.31250000  0.31250000  0.00000000  1
  V  V1361  1  0.31250000  0.31250000  0.06250000  1
  V  V1362  1  0.31250000  0.31250000  0.12500000  1
  V  V1363  1  0.31250000  0.31250000  0.18750000  1
  V  V1364  1  0.31250000  0.31250000  0.25000000  1
  V  V1365  1  0.31250000  0.31250000  0.31250000  1
  V  V1366  1  0.31250000  0.31250000  0.37500000  1
  V  V1367  1  0.31250000  0.31250000  0.43750000  1
  V  V1368  1  0.31250000  0.31250000  0.50000000  1
  V  V1369  1  0.31250000  0.31250000  0.56250000  1
  V  V1370  1  0.31250000  0.31250000  0.62500000  1
  V  V1371  1  0.31250000  0.31250000  0.68750000  1
  V  V1372  1  0.31250000  0.31250000  0.75000000  1
  V  V1373  1  0.31250000  0.31250000  0.81250000  1
  V  V1374  1  0.31250000  0.31250000  0.87500000  1
  V  V1375  1  0.31250000  0.31250000  0.93750000  1
  V  V1376  1  0.31250000  0.37500000  0.00000000  1
  V  V1377  1  0.31250000  0.37500000  0.06250000  1
  V  V1378  1  0.31250000  0.37500000  0.12500000  1
  V  V1379  1  0.31250000  0.37500000  0.18750000  1
  V  V1380  1  0.31250000  0.37500000  0.25000000  1
  V  V1381  1  0.31250000  0.37500000  0.31250000  1
  V  V1382  1  0.31250000  0.37500000  0.37500000  1
  V  V1383  1  0.31250000  0.37500000  0.43750000  1
  V  V1384  1  0.31250000  0.37500000  0.50000000  1
  V  V1385  1  0.31250000  0.37500000  0.56250000  1
  V  V1386  1  0.31250000  0.37500000  0.62500000  1
  V  V1387  1  0.31250000  0.37500000  0.68750000  1
  V  V1388  1  0.31250000  0.37500000  0.75000000  1
  V  V1389  1  0.31250000  0.37500000  0.81250000  1
  V  V1390  1  0.31250000  0.37500000  0.87500000  1
  V  V1391  1  0.31250000  0.37500000  0.93750000  1
  V  V1392  1  0.31250000  0.43750000  0.00000000  1
  V  V1393  1  0.31250000  0.43750000  0.06250000  1
  V  V1394  1  0.31250000  0.43750000  0.12500000  1
  V  V1395  1  0.31250000  0.43750000  0.18750000  1
  V  V1396  1  0.31250000  0.43750000  0.25000000  1
  V  V1397  1  0.31250000  0.43750000  0.31250000  1
  V  V1398  1  0.31250000  0.43750000  0.37500000  1
  V  V1399  1  0.31250000  0.43750000  0.43750000  1
  V  V1400  1  0.31250000  0.43750000  0.50000000  1
  V  V1401  1  0.31250000  0.43750000  0.56250000  1
  V  V1402  1  0.31250000  0.43750000  0.62500000  1
  V  V1403  1  0.31250000  0.43750000  0.68750000  1
  V  V1404  1  0.31250000  0.43750000  0.75000000  1
  V  V1405  1  0.31250000  0.43750000  0.81250000  1
  V  V1406  1  0.31250000  0.43750000  0.87500000  1
  V  V1407  1  0.31250000  0.43750000  0.93750000  1
  V  V1408  1  0.31250000  0.50000000  0.00000000  1
  V  V1409  1  0.31250000  0.50000000  0.06250000  1
  V  V1410  1  0.31250000  0.50000000  0.12500000  1
  V  V1411  1  0.31250000  0.50000000  0.18750000  1
  V  V1412  1  0.31250000  0.50000000  0.25000000  1
  V  V1413  1  0.31250000  0.50000000  0.31250000  1
  V  V1414  1  0.31250000  0.50000000  0.37500000  1
  V  V1415  1  0.31250000  0.50000000  0.43750000  1
  V  V1416  1  0.31250000  0.50000000  0.50000000  1
  V  V1417  1  0.31250000  0.50000000  0.56250000  1
  V  V1418  1  0.31250000  0.50000000  0.62500000  1
  V  V1419  1  0.31250000  0.50000000  0.68750000  1
  V  V1420  1  0.31250000  0.50000000  0.75000000  1
  V  V1421  1  0.31250000  0.50000000  0.81250000  1
  V  V1422  1  0.31250000  0.50000000  0.87500000  1
  V  V1423  1  0.31250000  0.50000000  0.93750000  1
  Ti  Ti1424  1  0.31250000  0.56250000  0.00000000  1
  V  V1425  1  0.31250000  0.56250000  0.06250000  1
  Cr  Cr1426  1  0.31250000  0.56250000  0.12500000  1
  V  V1427  1  0.31250000  0.56250000  0.18750000  1
  V  V1428  1  0.31250000  0.56250000  0.25000000  1
  V  V1429  1  0.31250000  0.56250000  0.31250000  1
  V  V1430  1  0.31250000  0.56250000  0.37500000  1
  V  V1431  1  0.31250000  0.56250000  0.43750000  1
  V  V1432  1  0.31250000  0.56250000  0.50000000  1
  V  V1433  1  0.31250000  0.56250000  0.56250000  1
  V  V1434  1  0.31250000  0.56250000  0.62500000  1
  V  V1435  1  0.31250000  0.56250000  0.68750000  1
  Cr  Cr1436  1  0.31250000  0.56250000  0.75000000  1
  V  V1437  1  0.31250000  0.56250000  0.81250000  1
  Cr  Cr1438  1  0.31250000  0.56250000  0.87500000  1
  V  V1439  1  0.31250000  0.56250000  0.93750000  1
  V  V1440  1  0.31250000  0.62500000  0.00000000  1
  Ti  Ti1441  1  0.31250000  0.62500000  0.06250000  1
  V  V1442  1  0.31250000  0.62500000  0.12500000  1
  Cr  Cr1443  1  0.31250000  0.62500000  0.18750000  1
  V  V1444  1  0.31250000  0.62500000  0.25000000  1
  V  V1445  1  0.31250000  0.62500000  0.31250000  1
  V  V1446  1  0.31250000  0.62500000  0.37500000  1
  V  V1447  1  0.31250000  0.62500000  0.43750000  1
  Cr  Cr1448  1  0.31250000  0.62500000  0.50000000  1
  Cr  Cr1449  1  0.31250000  0.62500000  0.56250000  1
  V  V1450  1  0.31250000  0.62500000  0.62500000  1
  Cr  Cr1451  1  0.31250000  0.62500000  0.68750000  1
  V  V1452  1  0.31250000  0.62500000  0.75000000  1
  Ti  Ti1453  1  0.31250000  0.62500000  0.81250000  1
  V  V1454  1  0.31250000  0.62500000  0.87500000  1
  Ti  Ti1455  1  0.31250000  0.62500000  0.93750000  1
  Ti  Ti1456  1  0.31250000  0.68750000  0.00000000  1
  V  V1457  1  0.31250000  0.68750000  0.06250000  1
  Ti  Ti1458  1  0.31250000  0.68750000  0.12500000  1
  V  V1459  1  0.31250000  0.68750000  0.18750000  1
  Ti  Ti1460  1  0.31250000  0.68750000  0.25000000  1
  V  V1461  1  0.31250000  0.68750000  0.31250000  1
  Cr  Cr1462  1  0.31250000  0.68750000  0.37500000  1
  V  V1463  1  0.31250000  0.68750000  0.43750000  1
  Cr  Cr1464  1  0.31250000  0.68750000  0.50000000  1
  V  V1465  1  0.31250000  0.68750000  0.56250000  1
  Cr  Cr1466  1  0.31250000  0.68750000  0.62500000  1
  V  V1467  1  0.31250000  0.68750000  0.68750000  1
  Ti  Ti1468  1  0.31250000  0.68750000  0.75000000  1
  V  V1469  1  0.31250000  0.68750000  0.81250000  1
  Ti  Ti1470  1  0.31250000  0.68750000  0.87500000  1
  V  V1471  1  0.31250000  0.68750000  0.93750000  1
  V  V1472  1  0.31250000  0.75000000  0.00000000  1
  Ti  Ti1473  1  0.31250000  0.75000000  0.06250000  1
  V  V1474  1  0.31250000  0.75000000  0.12500000  1
  Ti  Ti1475  1  0.31250000  0.75000000  0.18750000  1
  V  V1476  1  0.31250000  0.75000000  0.25000000  1
  Cr  Cr1477  1  0.31250000  0.75000000  0.31250000  1
  V  V1478  1  0.31250000  0.75000000  0.37500000  1
  Cr  Cr1479  1  0.31250000  0.75000000  0.43750000  1
  V  V1480  1  0.31250000  0.75000000  0.50000000  1
  Cr  Cr1481  1  0.31250000  0.75000000  0.56250000  1
  V  V1482  1  0.31250000  0.75000000  0.62500000  1
  Ti  Ti1483  1  0.31250000  0.75000000  0.68750000  1
  V  V1484  1  0.31250000  0.75000000  0.75000000  1
  Ti  Ti1485  1  0.31250000  0.75000000  0.81250000  1
  V  V1486  1  0.31250000  0.75000000  0.87500000  1
  Ti  Ti1487  1  0.31250000  0.75000000  0.93750000  1
  Ti  Ti1488  1  0.31250000  0.81250000  0.00000000  1
  V  V1489  1  0.31250000  0.81250000  0.06250000  1
  Ti  Ti1490  1  0.31250000  0.81250000  0.12500000  1
  V  V1491  1  0.31250000  0.81250000  0.18750000  1
  Ti  Ti1492  1  0.31250000  0.81250000  0.25000000  1
  V  V1493  1  0.31250000  0.81250000  0.31250000  1
  Cr  Cr1494  1  0.31250000  0.81250000  0.37500000  1
  V  V1495  1  0.31250000  0.81250000  0.43750000  1
  Cr  Cr1496  1  0.31250000  0.81250000  0.50000000  1
  V  V1497  1  0.31250000  0.81250000  0.56250000  1
  Ti  Ti1498  1  0.31250000  0.81250000  0.62500000  1
  V  V1499  1  0.31250000  0.81250000  0.68750000  1
  Ti  Ti1500  1  0.31250000  0.81250000  0.75000000  1
  V  V1501  1  0.31250000  0.81250000  0.81250000  1
  Ti  Ti1502  1  0.31250000  0.81250000  0.87500000  1
  V  V1503  1  0.31250000  0.81250000  0.93750000  1
  V  V1504  1  0.31250000  0.87500000  0.00000000  1
  Ti  Ti1505  1  0.31250000  0.87500000  0.06250000  1
  V  V1506  1  0.31250000  0.87500000  0.12500000  1
  Ti  Ti1507  1  0.31250000  0.87500000  0.18750000  1
  V  V1508  1  0.31250000  0.87500000  0.25000000  1
  Cr  Cr1509  1  0.31250000  0.87500000  0.31250000  1
  V  V1510  1  0.31250000  0.87500000  0.37500000  1
  Cr  Cr1511  1  0.31250000  0.87500000  0.43750000  1
  V  V1512  1  0.31250000  0.87500000  0.50000000  1
  Cr  Cr1513  1  0.31250000  0.87500000  0.56250000  1
  V  V1514  1  0.31250000  0.87500000  0.62500000  1
  Ti  Ti1515  1  0.31250000  0.87500000  0.68750000  1
  V  V1516  1  0.31250000  0.87500000  0.75000000  1
  Ti  Ti1517  1  0.31250000  0.87500000  0.81250000  1
  V  V1518  1  0.31250000  0.87500000  0.87500000  1
  Ti  Ti1519  1  0.31250000  0.87500000  0.93750000  1
  Ti  Ti1520  1  0.31250000  0.93750000  0.00000000  1
  V  V1521  1  0.31250000  0.93750000  0.06250000  1
  Ti  Ti1522  1  0.31250000  0.93750000  0.12500000  1
  V  V1523  1  0.31250000  0.93750000  0.18750000  1
  Cr  Cr1524  1  0.31250000  0.93750000  0.25000000  1
  V  V1525  1  0.31250000  0.93750000  0.31250000  1
  Cr  Cr1526  1  0.31250000  0.93750000  0.37500000  1
  V  V1527  1  0.31250000  0.93750000  0.43750000  1
  Cr  Cr1528  1  0.31250000  0.93750000  0.50000000  1
  V  V1529  1  0.31250000  0.93750000  0.56250000  1
  Ti  Ti1530  1  0.31250000  0.93750000  0.62500000  1
  V  V1531  1  0.31250000  0.93750000  0.68750000  1
  Ti  Ti1532  1  0.31250000  0.93750000  0.75000000  1
  V  V1533  1  0.31250000  0.93750000  0.81250000  1
  Ti  Ti1534  1  0.31250000  0.93750000  0.87500000  1
  V  V1535  1  0.31250000  0.93750000  0.93750000  1
  Ti  Ti1536  1  0.37500000  0.00000000  0.00000000  1
  V  V1537  1  0.37500000  0.00000000  0.06250000  1
  Ti  Ti1538  1  0.37500000  0.00000000  0.12500000  1
  V  V1539  1  0.37500000  0.00000000  0.18750000  1
  Ti  Ti1540  1  0.37500000  0.00000000  0.25000000  1
  V  V1541  1  0.37500000  0.00000000  0.31250000  1
  Cr  Cr1542  1  0.37500000  0.00000000  0.37500000  1
  V  V1543  1  0.37500000  0.00000000  0.43750000  1
  Cr  Cr1544  1  0.37500000  0.00000000  0.50000000  1
  V  V1545  1  0.37500000  0.00000000  0.56250000  1
  Ti  Ti1546  1  0.37500000  0.00000000  0.62500000  1
  V  V1547  1  0.37500000  0.00000000  0.68750000  1
  Ti  Ti1548  1  0.37500000  0.00000000  0.75000000  1
  V  V1549  1  0.37500000  0.00000000  0.81250000  1
  Ti  Ti1550  1  0.37500000  0.00000000  0.87500000  1
  V  V1551  1  0.37500000  0.00000000  0.93750000  1
  V  V1552  1  0.37500000  0.06250000  0.00000000  1
  Ti  Ti1553  1  0.37500000  0.06250000  0.06250000  1
  V  V1554  1  0.37500000  0.06250000  0.12500000  1
  Ti  Ti1555  1  0.37500000  0.06250000  0.18750000  1
  V  V1556  1  0.37500000  0.06250000  0.25000000  1
  Cr  Cr1557  1  0.37500000  0.06250000  0.31250000  1
  V  V1558  1  0.37500000  0.06250000  0.37500000  1
  Cr  Cr1559  1  0.37500000  0.06250000  0.43750000  1
  V  V1560  1  0.37500000  0.06250000  0.50000000  1
  Cr  Cr1561  1  0.37500000  0.06250000  0.56250000  1
  V  V1562  1  0.37500000  0.06250000  0.62500000  1
  Ti  Ti1563  1  0.37500000  0.06250000  0.68750000  1
  V  V1564  1  0.37500000  0.06250000  0.75000000  1
  Ti  Ti1565  1  0.37500000  0.06250000  0.81250000  1
  V  V1566  1  0.37500000  0.06250000  0.87500000  1
  Ti  Ti1567  1  0.37500000  0.06250000  0.93750000  1
  Ti  Ti1568  1  0.37500000  0.12500000  0.00000000  1
  V  V1569  1  0.37500000  0.12500000  0.06250000  1
  Cr  Cr1570  1  0.37500000  0.12500000  0.12500000  1
  V  V1571  1  0.37500000  0.12500000  0.18750000  1
  Cr  Cr1572  1  0.37500000  0.12500000  0.25000000  1
  V  V1573  1  0.37500000  0.12500000  0.31250000  1
  Cr  Cr1574  1  0.37500000  0.12500000  0.37500000  1
  V  V1575  1  0.37500000  0.12500000  0.43750000  1
  V  V1576  1  0.37500000  0.12500000  0.50000000  1
  V  V1577  1  0.37500000  0.12500000  0.56250000  1
  Cr  Cr1578  1  0.37500000  0.12500000  0.62500000  1
  V  V1579  1  0.37500000  0.12500000  0.68750000  1
  Ti  Ti1580  1  0.37500000  0.12500000  0.75000000  1
  V  V1581  1  0.37500000  0.12500000  0.81250000  1
  Ti  Ti1582  1  0.37500000  0.12500000  0.87500000  1
  V  V1583  1  0.37500000  0.12500000  0.93750000  1
  V  V1584  1  0.37500000  0.18750000  0.00000000  1
  Cr  Cr1585  1  0.37500000  0.18750000  0.06250000  1
  V  V1586  1  0.37500000  0.18750000  0.12500000  1
  Cr  Cr1587  1  0.37500000  0.18750000  0.18750000  1
  V  V1588  1  0.37500000  0.18750000  0.25000000  1
  Cr  Cr1589  1  0.37500000  0.18750000  0.31250000  1
  Cr  Cr1590  1  0.37500000  0.18750000  0.37500000  1
  V  V1591  1  0.37500000  0.18750000  0.43750000  1
  Cr  Cr1592  1  0.37500000  0.18750000  0.50000000  1
  V  V1593  1  0.37500000  0.18750000  0.56250000  1
  V  V1594  1  0.37500000  0.18750000  0.62500000  1
  Cr  Cr1595  1  0.37500000  0.18750000  0.68750000  1
  V  V1596  1  0.37500000  0.18750000  0.75000000  1
  Cr  Cr1597  1  0.37500000  0.18750000  0.81250000  1
  V  V1598  1  0.37500000  0.18750000  0.87500000  1
  Ti  Ti1599  1  0.37500000  0.18750000  0.93750000  1
  Cr  Cr1600  1  0.37500000  0.25000000  0.00000000  1
  V  V1601  1  0.37500000  0.25000000  0.06250000  1
  V  V1602  1  0.37500000  0.25000000  0.12500000  1
  V  V1603  1  0.37500000  0.25000000  0.18750000  1
  V  V1604  1  0.37500000  0.25000000  0.25000000  1
  V  V1605  1  0.37500000  0.25000000  0.31250000  1
  V  V1606  1  0.37500000  0.25000000  0.37500000  1
  V  V1607  1  0.37500000  0.25000000  0.43750000  1
  V  V1608  1  0.37500000  0.25000000  0.50000000  1
  V  V1609  1  0.37500000  0.25000000  0.56250000  1
  V  V1610  1  0.37500000  0.25000000  0.62500000  1
  V  V1611  1  0.37500000  0.25000000  0.68750000  1
  V  V1612  1  0.37500000  0.25000000  0.75000000  1
  V  V1613  1  0.37500000  0.25000000  0.81250000  1
  Cr  Cr1614  1  0.37500000  0.25000000  0.87500000  1
  V  V1615  1  0.37500000  0.25000000  0.93750000  1
  V  V1616  1  0.37500000  0.31250000  0.00000000  1
  V  V1617  1  0.37500000  0.31250000  0.06250000  1
  Cr  Cr1618  1  0.37500000  0.31250000  0.12500000  1
  V  V1619  1  0.37500000  0.31250000  0.18750000  1
  V  V1620  1  0.37500000  0.31250000  0.25000000  1
  V  V1621  1  0.37500000  0.31250000  0.31250000  1
  V  V1622  1  0.37500000  0.31250000  0.37500000  1
  V  V1623  1  0.37500000  0.31250000  0.43750000  1
  V  V1624  1  0.37500000  0.31250000  0.50000000  1
  V  V1625  1  0.37500000  0.31250000  0.56250000  1
  Cr  Cr1626  1  0.37500000  0.31250000  0.62500000  1
  V  V1627  1  0.37500000  0.31250000  0.68750000  1
  V  V1628  1  0.37500000  0.31250000  0.75000000  1
  V  V1629  1  0.37500000  0.31250000  0.81250000  1
  V  V1630  1  0.37500000  0.31250000  0.87500000  1
  Cr  Cr1631  1  0.37500000  0.31250000  0.93750000  1
  V  V1632  1  0.37500000  0.37500000  0.00000000  1
  V  V1633  1  0.37500000  0.37500000  0.06250000  1
  Cr  Cr1634  1  0.37500000  0.37500000  0.12500000  1
  V  V1635  1  0.37500000  0.37500000  0.18750000  1
  V  V1636  1  0.37500000  0.37500000  0.25000000  1
  V  V1637  1  0.37500000  0.37500000  0.31250000  1
  V  V1638  1  0.37500000  0.37500000  0.37500000  1
  V  V1639  1  0.37500000  0.37500000  0.43750000  1
  V  V1640  1  0.37500000  0.37500000  0.50000000  1
  V  V1641  1  0.37500000  0.37500000  0.56250000  1
  V  V1642  1  0.37500000  0.37500000  0.62500000  1
  V  V1643  1  0.37500000  0.37500000  0.68750000  1
  V  V1644  1  0.37500000  0.37500000  0.75000000  1
  V  V1645  1  0.37500000  0.37500000  0.81250000  1
  V  V1646  1  0.37500000  0.37500000  0.87500000  1
  V  V1647  1  0.37500000  0.37500000  0.93750000  1
  V  V1648  1  0.37500000  0.43750000  0.00000000  1
  V  V1649  1  0.37500000  0.43750000  0.06250000  1
  V  V1650  1  0.37500000  0.43750000  0.12500000  1
  Cr  Cr1651  1  0.37500000  0.43750000  0.18750000  1
  V  V1652  1  0.37500000  0.43750000  0.25000000  1
  V  V1653  1  0.37500000  0.43750000  0.31250000  1
  V  V1654  1  0.37500000  0.43750000  0.37500000  1
  V  V1655  1  0.37500000  0.43750000  0.43750000  1
  V  V1656  1  0.37500000  0.43750000  0.50000000  1
  V  V1657  1  0.37500000  0.43750000  0.56250000  1
  V  V1658  1  0.37500000  0.43750000  0.62500000  1
  V  V1659  1  0.37500000  0.43750000  0.68750000  1
  Cr  Cr1660  1  0.37500000  0.43750000  0.75000000  1
  V  V1661  1  0.37500000  0.43750000  0.81250000  1
  V  V1662  1  0.37500000  0.43750000  0.87500000  1
  V  V1663  1  0.37500000  0.43750000  0.93750000  1
  Cr  Cr1664  1  0.37500000  0.50000000  0.00000000  1
  V  V1665  1  0.37500000  0.50000000  0.06250000  1
  V  V1666  1  0.37500000  0.50000000  0.12500000  1
  V  V1667  1  0.37500000  0.50000000  0.18750000  1
  Cr  Cr1668  1  0.37500000  0.50000000  0.25000000  1
  V  V1669  1  0.37500000  0.50000000  0.31250000  1
  Cr  Cr1670  1  0.37500000  0.50000000  0.37500000  1
  V  V1671  1  0.37500000  0.50000000  0.43750000  1
  V  V1672  1  0.37500000  0.50000000  0.50000000  1
  V  V1673  1  0.37500000  0.50000000  0.56250000  1
  V  V1674  1  0.37500000  0.50000000  0.62500000  1
  V  V1675  1  0.37500000  0.50000000  0.68750000  1
  V  V1676  1  0.37500000  0.50000000  0.75000000  1
  V  V1677  1  0.37500000  0.50000000  0.81250000  1
  Cr  Cr1678  1  0.37500000  0.50000000  0.87500000  1
  V  V1679  1  0.37500000  0.50000000  0.93750000  1
  V  V1680  1  0.37500000  0.56250000  0.00000000  1
  Ti  Ti1681  1  0.37500000  0.56250000  0.06250000  1
  V  V1682  1  0.37500000  0.56250000  0.12500000  1
  Cr  Cr1683  1  0.37500000  0.56250000  0.18750000  1
  V  V1684  1  0.37500000  0.56250000  0.25000000  1
  Ti  Ti1685  1  0.37500000  0.56250000  0.31250000  1
  V  V1686  1  0.37500000  0.56250000  0.37500000  1
  Cr  Cr1687  1  0.37500000  0.56250000  0.43750000  1
  V  V1688  1  0.37500000  0.56250000  0.50000000  1
  V  V1689  1  0.37500000  0.56250000  0.56250000  1
  V  V1690  1  0.37500000  0.56250000  0.62500000  1
  V  V1691  1  0.37500000  0.56250000  0.68750000  1
  V  V1692  1  0.37500000  0.56250000  0.75000000  1
  Cr  Cr1693  1  0.37500000  0.56250000  0.81250000  1
  V  V1694  1  0.37500000  0.56250000  0.87500000  1
  Cr  Cr1695  1  0.37500000  0.56250000  0.93750000  1
  Ti  Ti1696  1  0.37500000  0.62500000  0.00000000  1
  V  V1697  1  0.37500000  0.62500000  0.06250000  1
  Ti  Ti1698  1  0.37500000  0.62500000  0.12500000  1
  V  V1699  1  0.37500000  0.62500000  0.18750000  1
  Ti  Ti1700  1  0.37500000  0.62500000  0.25000000  1
  V  V1701  1  0.37500000  0.62500000  0.31250000  1
  Ti  Ti1702  1  0.37500000  0.62500000  0.37500000  1
  V  V1703  1  0.37500000  0.62500000  0.43750000  1
  Cr  Cr1704  1  0.37500000  0.62500000  0.50000000  1
  V  V1705  1  0.37500000  0.62500000  0.56250000  1
  Cr  Cr1706  1  0.37500000  0.62500000  0.62500000  1
  V  V1707  1  0.37500000  0.62500000  0.68750000  1
  Ti  Ti1708  1  0.37500000  0.62500000  0.75000000  1
  V  V1709  1  0.37500000  0.62500000  0.81250000  1
  Ti  Ti1710  1  0.37500000  0.62500000  0.87500000  1
  V  V1711  1  0.37500000  0.62500000  0.93750000  1
  V  V1712  1  0.37500000  0.68750000  0.00000000  1
  Ti  Ti1713  1  0.37500000  0.68750000  0.06250000  1
  V  V1714  1  0.37500000  0.68750000  0.12500000  1
  Ti  Ti1715  1  0.37500000  0.68750000  0.18750000  1
  V  V1716  1  0.37500000  0.68750000  0.25000000  1
  Ti  Ti1717  1  0.37500000  0.68750000  0.31250000  1
  V  V1718  1  0.37500000  0.68750000  0.37500000  1
  Ti  Ti1719  1  0.37500000  0.68750000  0.43750000  1
  V  V1720  1  0.37500000  0.68750000  0.50000000  1
  Cr  Cr1721  1  0.37500000  0.68750000  0.56250000  1
  V  V1722  1  0.37500000  0.68750000  0.62500000  1
  Ti  Ti1723  1  0.37500000  0.68750000  0.68750000  1
  V  V1724  1  0.37500000  0.68750000  0.75000000  1
  Cr  Cr1725  1  0.37500000  0.68750000  0.81250000  1
  V  V1726  1  0.37500000  0.68750000  0.87500000  1
  Ti  Ti1727  1  0.37500000  0.68750000  0.93750000  1
  Ti  Ti1728  1  0.37500000  0.75000000  0.00000000  1
  V  V1729  1  0.37500000  0.75000000  0.06250000  1
  Ti  Ti1730  1  0.37500000  0.75000000  0.12500000  1
  V  V1731  1  0.37500000  0.75000000  0.18750000  1
  Ti  Ti1732  1  0.37500000  0.75000000  0.25000000  1
  V  V1733  1  0.37500000  0.75000000  0.31250000  1
  Ti  Ti1734  1  0.37500000  0.75000000  0.37500000  1
  V  V1735  1  0.37500000  0.75000000  0.43750000  1
  Ti  Ti1736  1  0.37500000  0.75000000  0.50000000  1
  V  V1737  1  0.37500000  0.75000000  0.56250000  1
  Ti  Ti1738  1  0.37500000  0.75000000  0.62500000  1
  V  V1739  1  0.37500000  0.75000000  0.68750000  1
  Ti  Ti1740  1  0.37500000  0.75000000  0.75000000  1
  V  V1741  1  0.37500000  0.75000000  0.81250000  1
  Ti  Ti1742  1  0.37500000  0.75000000  0.87500000  1
  V  V1743  1  0.37500000  0.75000000  0.93750000  1
  V  V1744  1  0.37500000  0.81250000  0.00000000  1
  Ti  Ti1745  1  0.37500000  0.81250000  0.06250000  1
  V  V1746  1  0.37500000  0.81250000  0.12500000  1
  Ti  Ti1747  1  0.37500000  0.81250000  0.18750000  1
  V  V1748  1  0.37500000  0.81250000  0.25000000  1
  Ti  Ti1749  1  0.37500000  0.81250000  0.31250000  1
  V  V1750  1  0.37500000  0.81250000  0.37500000  1
  Ti  Ti1751  1  0.37500000  0.81250000  0.43750000  1
  V  V1752  1  0.37500000  0.81250000  0.50000000  1
  Ti  Ti1753  1  0.37500000  0.81250000  0.56250000  1
  V  V1754  1  0.37500000  0.81250000  0.62500000  1
  Ti  Ti1755  1  0.37500000  0.81250000  0.68750000  1
  V  V1756  1  0.37500000  0.81250000  0.75000000  1
  Ti  Ti1757  1  0.37500000  0.81250000  0.81250000  1
  V  V1758  1  0.37500000  0.81250000  0.87500000  1
  Ti  Ti1759  1  0.37500000  0.81250000  0.93750000  1
  Ti  Ti1760  1  0.37500000  0.87500000  0.00000000  1
  V  V1761  1  0.37500000  0.87500000  0.06250000  1
  Ti  Ti1762  1  0.37500000  0.87500000  0.12500000  1
  V  V1763  1  0.37500000  0.87500000  0.18750000  1
  Ti  Ti1764  1  0.37500000  0.87500000  0.25000000  1
  V  V1765  1  0.37500000  0.87500000  0.31250000  1
  Ti  Ti1766  1  0.37500000  0.87500000  0.37500000  1
  V  V1767  1  0.37500000  0.87500000  0.43750000  1
  Ti  Ti1768  1  0.37500000  0.87500000  0.50000000  1
  V  V1769  1  0.37500000  0.87500000  0.56250000  1
  Ti  Ti1770  1  0.37500000  0.87500000  0.62500000  1
  V  V1771  1  0.37500000  0.87500000  0.68750000  1
  Ti  Ti1772  1  0.37500000  0.87500000  0.75000000  1
  V  V1773  1  0.37500000  0.87500000  0.81250000  1
  Ti  Ti1774  1  0.37500000  0.87500000  0.87500000  1
  V  V1775  1  0.37500000  0.87500000  0.93750000  1
  V  V1776  1  0.37500000  0.93750000  0.00000000  1
  Ti  Ti1777  1  0.37500000  0.93750000  0.06250000  1
  V  V1778  1  0.37500000  0.93750000  0.12500000  1
  Ti  Ti1779  1  0.37500000  0.93750000  0.18750000  1
  V  V1780  1  0.37500000  0.93750000  0.25000000  1
  Ti  Ti1781  1  0.37500000  0.93750000  0.31250000  1
  V  V1782  1  0.37500000  0.93750000  0.37500000  1
  Ti  Ti1783  1  0.37500000  0.93750000  0.43750000  1
  V  V1784  1  0.37500000  0.93750000  0.50000000  1
  Ti  Ti1785  1  0.37500000  0.93750000  0.56250000  1
  V  V1786  1  0.37500000  0.93750000  0.62500000  1
  Ti  Ti1787  1  0.37500000  0.93750000  0.68750000  1
  V  V1788  1  0.37500000  0.93750000  0.75000000  1
  Ti  Ti1789  1  0.37500000  0.93750000  0.81250000  1
  V  V1790  1  0.37500000  0.93750000  0.87500000  1
  Ti  Ti1791  1  0.37500000  0.93750000  0.93750000  1
  V  V1792  1  0.43750000  0.00000000  0.00000000  1
  Ti  Ti1793  1  0.43750000  0.00000000  0.06250000  1
  V  V1794  1  0.43750000  0.00000000  0.12500000  1
  Ti  Ti1795  1  0.43750000  0.00000000  0.18750000  1
  V  V1796  1  0.43750000  0.00000000  0.25000000  1
  Ti  Ti1797  1  0.43750000  0.00000000  0.31250000  1
  V  V1798  1  0.43750000  0.00000000  0.37500000  1
  Ti  Ti1799  1  0.43750000  0.00000000  0.43750000  1
  V  V1800  1  0.43750000  0.00000000  0.50000000  1
  Ti  Ti1801  1  0.43750000  0.00000000  0.56250000  1
  V  V1802  1  0.43750000  0.00000000  0.62500000  1
  Ti  Ti1803  1  0.43750000  0.00000000  0.68750000  1
  V  V1804  1  0.43750000  0.00000000  0.75000000  1
  Ti  Ti1805  1  0.43750000  0.00000000  0.81250000  1
  V  V1806  1  0.43750000  0.00000000  0.87500000  1
  Ti  Ti1807  1  0.43750000  0.00000000  0.93750000  1
  Ti  Ti1808  1  0.43750000  0.06250000  0.00000000  1
  V  V1809  1  0.43750000  0.06250000  0.06250000  1
  Ti  Ti1810  1  0.43750000  0.06250000  0.12500000  1
  V  V1811  1  0.43750000  0.06250000  0.18750000  1
  Ti  Ti1812  1  0.43750000  0.06250000  0.25000000  1
  V  V1813  1  0.43750000  0.06250000  0.31250000  1
  Ti  Ti1814  1  0.43750000  0.06250000  0.37500000  1
  V  V1815  1  0.43750000  0.06250000  0.43750000  1
  Ti  Ti1816  1  0.43750000  0.06250000  0.50000000  1
  V  V1817  1  0.43750000  0.06250000  0.56250000  1
  Ti  Ti1818  1  0.43750000  0.06250000  0.62500000  1
  V  V1819  1  0.43750000  0.06250000  0.68750000  1
  Ti  Ti1820  1  0.43750000  0.06250000  0.75000000  1
  V  V1821  1  0.43750000  0.06250000  0.81250000  1
  Ti  Ti1822  1  0.43750000  0.06250000  0.87500000  1
  V  V1823  1  0.43750000  0.06250000  0.93750000  1
  V  V1824  1  0.43750000  0.12500000  0.00000000  1
  Ti  Ti1825  1  0.43750000  0.12500000  0.06250000  1
  V  V1826  1  0.43750000  0.12500000  0.12500000  1
  Ti  Ti1827  1  0.43750000  0.12500000  0.18750000  1
  V  V1828  1  0.43750000  0.12500000  0.25000000  1
  Ti  Ti1829  1  0.43750000  0.12500000  0.31250000  1
  V  V1830  1  0.43750000  0.12500000  0.37500000  1
  Ti  Ti1831  1  0.43750000  0.12500000  0.43750000  1
  V  V1832  1  0.43750000  0.12500000  0.50000000  1
  Cr  Cr1833  1  0.43750000  0.12500000  0.56250000  1
  V  V1834  1  0.43750000  0.12500000  0.62500000  1
  Cr  Cr1835  1  0.43750000  0.12500000  0.68750000  1
  V  V1836  1  0.43750000  0.12500000  0.75000000  1
  Ti  Ti1837  1  0.43750000  0.12500000  0.81250000  1
  V  V1838  1  0.43750000  0.12500000  0.87500000  1
  Ti  Ti1839  1  0.43750000  0.12500000  0.93750000  1
  Ti  Ti1840  1  0.43750000  0.18750000  0.00000000  1
  V  V1841  1  0.43750000  0.18750000  0.06250000  1
  Ti  Ti1842  1  0.43750000  0.18750000  0.12500000  1
  V  V1843  1  0.43750000  0.18750000  0.18750000  1
  Ti  Ti1844  1  0.43750000  0.18750000  0.25000000  1
  V  V1845  1  0.43750000  0.18750000  0.31250000  1
  Cr  Cr1846  1  0.43750000  0.18750000  0.37500000  1
  V  V1847  1  0.43750000  0.18750000  0.43750000  1
  Cr  Cr1848  1  0.43750000  0.18750000  0.50000000  1
  V  V1849  1  0.43750000  0.18750000  0.56250000  1
  Cr  Cr1850  1  0.43750000  0.18750000  0.62500000  1
  V  V1851  1  0.43750000  0.18750000  0.68750000  1
  Ti  Ti1852  1  0.43750000  0.18750000  0.75000000  1
  V  V1853  1  0.43750000  0.18750000  0.81250000  1
  Ti  Ti1854  1  0.43750000  0.18750000  0.87500000  1
  V  V1855  1  0.43750000  0.18750000  0.93750000  1
  V  V1856  1  0.43750000  0.25000000  0.00000000  1
  Ti  Ti1857  1  0.43750000  0.25000000  0.06250000  1
  V  V1858  1  0.43750000  0.25000000  0.12500000  1
  Cr  Cr1859  1  0.43750000  0.25000000  0.18750000  1
  V  V1860  1  0.43750000  0.25000000  0.25000000  1
  Cr  Cr1861  1  0.43750000  0.25000000  0.31250000  1
  V  V1862  1  0.43750000  0.25000000  0.37500000  1
  V  V1863  1  0.43750000  0.25000000  0.43750000  1
  V  V1864  1  0.43750000  0.25000000  0.50000000  1
  Cr  Cr1865  1  0.43750000  0.25000000  0.56250000  1
  V  V1866  1  0.43750000  0.25000000  0.62500000  1
  Cr  Cr1867  1  0.43750000  0.25000000  0.68750000  1
  V  V1868  1  0.43750000  0.25000000  0.75000000  1
  Cr  Cr1869  1  0.43750000  0.25000000  0.81250000  1
  V  V1870  1  0.43750000  0.25000000  0.87500000  1
  Ti  Ti1871  1  0.43750000  0.25000000  0.93750000  1
  Ti  Ti1872  1  0.43750000  0.31250000  0.00000000  1
  V  V1873  1  0.43750000  0.31250000  0.06250000  1
  Cr  Cr1874  1  0.43750000  0.31250000  0.12500000  1
  V  V1875  1  0.43750000  0.31250000  0.18750000  1
  Cr  Cr1876  1  0.43750000  0.31250000  0.25000000  1
  V  V1877  1  0.43750000  0.31250000  0.31250000  1
  Cr  Cr1878  1  0.43750000  0.31250000  0.37500000  1
  V  V1879  1  0.43750000  0.31250000  0.43750000  1
  V  V1880  1  0.43750000  0.31250000  0.50000000  1
  V  V1881  1  0.43750000  0.31250000  0.56250000  1
  V  V1882  1  0.43750000  0.31250000  0.62500000  1
  V  V1883  1  0.43750000  0.31250000  0.68750000  1
  V  V1884  1  0.43750000  0.31250000  0.75000000  1
  V  V1885  1  0.43750000  0.31250000  0.81250000  1
  Cr  Cr1886  1  0.43750000  0.31250000  0.87500000  1
  V  V1887  1  0.43750000  0.31250000  0.93750000  1
  V  V1888  1  0.43750000  0.37500000  0.00000000  1
  Cr  Cr1889  1  0.43750000  0.37500000  0.06250000  1
  V  V1890  1  0.43750000  0.37500000  0.12500000  1
  Cr  Cr1891  1  0.43750000  0.37500000  0.18750000  1
  V  V1892  1  0.43750000  0.37500000  0.25000000  1
  Cr  Cr1893  1  0.43750000  0.37500000  0.31250000  1
  V  V1894  1  0.43750000  0.37500000  0.37500000  1
  V  V1895  1  0.43750000  0.37500000  0.43750000  1
  V  V1896  1  0.43750000  0.37500000  0.50000000  1
  V  V1897  1  0.43750000  0.37500000  0.56250000  1
  Cr  Cr1898  1  0.43750000  0.37500000  0.62500000  1
  Cr  Cr1899  1  0.43750000  0.37500000  0.68750000  1
  V  V1900  1  0.43750000  0.37500000  0.75000000  1
  Cr  Cr1901  1  0.43750000  0.37500000  0.81250000  1
  V  V1902  1  0.43750000  0.37500000  0.87500000  1
  Ti  Ti1903  1  0.43750000  0.37500000  0.93750000  1
  Ti  Ti1904  1  0.43750000  0.43750000  0.00000000  1
  V  V1905  1  0.43750000  0.43750000  0.06250000  1
  Cr  Cr1906  1  0.43750000  0.43750000  0.12500000  1
  V  V1907  1  0.43750000  0.43750000  0.18750000  1
  Cr  Cr1908  1  0.43750000  0.43750000  0.25000000  1
  V  V1909  1  0.43750000  0.43750000  0.31250000  1
  Cr  Cr1910  1  0.43750000  0.43750000  0.37500000  1
  V  V1911  1  0.43750000  0.43750000  0.43750000  1
  V  V1912  1  0.43750000  0.43750000  0.50000000  1
  V  V1913  1  0.43750000  0.43750000  0.56250000  1
  V  V1914  1  0.43750000  0.43750000  0.62500000  1
  V  V1915  1  0.43750000  0.43750000  0.68750000  1
  Cr  Cr1916  1  0.43750000  0.43750000  0.75000000  1
  V  V1917  1  0.43750000  0.43750000  0.81250000  1
  Cr  Cr1918  1  0.43750000  0.43750000  0.87500000  1
  V  V1919  1  0.43750000  0.43750000  0.93750000  1
  V  V1920  1  0.43750000  0.50000000  0.00000000  1
  Ti  Ti1921  1  0.43750000  0.50000000  0.06250000  1
  V  V1922  1  0.43750000  0.50000000  0.12500000  1
  Ti  Ti1923  1  0.43750000  0.50000000  0.18750000  1
  V  V1924  1  0.43750000  0.50000000  0.25000000  1
  Ti  Ti1925  1  0.43750000  0.50000000  0.31250000  1
  V  V1926  1  0.43750000  0.50000000  0.37500000  1
  Ti  Ti1927  1  0.43750000  0.50000000  0.43750000  1
  V  V1928  1  0.43750000  0.50000000  0.50000000  1
  Cr  Cr1929  1  0.43750000  0.50000000  0.56250000  1
  V  V1930  1  0.43750000  0.50000000  0.62500000  1
  V  V1931  1  0.43750000  0.50000000  0.68750000  1
  V  V1932  1  0.43750000  0.50000000  0.75000000  1
  Cr  Cr1933  1  0.43750000  0.50000000  0.81250000  1
  V  V1934  1  0.43750000  0.50000000  0.87500000  1
  Ti  Ti1935  1  0.43750000  0.50000000  0.93750000  1
  Ti  Ti1936  1  0.43750000  0.56250000  0.00000000  1
  V  V1937  1  0.43750000  0.56250000  0.06250000  1
  Ti  Ti1938  1  0.43750000  0.56250000  0.12500000  1
  V  V1939  1  0.43750000  0.56250000  0.18750000  1
  Ti  Ti1940  1  0.43750000  0.56250000  0.25000000  1
  V  V1941  1  0.43750000  0.56250000  0.31250000  1
  Ti  Ti1942  1  0.43750000  0.56250000  0.37500000  1
  V  V1943  1  0.43750000  0.56250000  0.43750000  1
  Cr  Cr1944  1  0.43750000  0.56250000  0.50000000  1
  V  V1945  1  0.43750000  0.56250000  0.56250000  1
  Cr  Cr1946  1  0.43750000  0.56250000  0.62500000  1
  V  V1947  1  0.43750000  0.56250000  0.68750000  1
  Cr  Cr1948  1  0.43750000  0.56250000  0.75000000  1
  V  V1949  1  0.43750000  0.56250000  0.81250000  1
  Ti  Ti1950  1  0.43750000  0.56250000  0.87500000  1
  V  V1951  1  0.43750000  0.56250000  0.93750000  1
  V  V1952  1  0.43750000  0.62500000  0.00000000  1
  Ti  Ti1953  1  0.43750000  0.62500000  0.06250000  1
  V  V1954  1  0.43750000  0.62500000  0.12500000  1
  Ti  Ti1955  1  0.43750000  0.62500000  0.18750000  1
  V  V1956  1  0.43750000  0.62500000  0.25000000  1
  Ti  Ti1957  1  0.43750000  0.62500000  0.31250000  1
  V  V1958  1  0.43750000  0.62500000  0.37500000  1
  Ti  Ti1959  1  0.43750000  0.62500000  0.43750000  1
  V  V1960  1  0.43750000  0.62500000  0.50000000  1
  Cr  Cr1961  1  0.43750000  0.62500000  0.56250000  1
  V  V1962  1  0.43750000  0.62500000  0.62500000  1
  Ti  Ti1963  1  0.43750000  0.62500000  0.68750000  1
  V  V1964  1  0.43750000  0.62500000  0.75000000  1
  Ti  Ti1965  1  0.43750000  0.62500000  0.81250000  1
  V  V1966  1  0.43750000  0.62500000  0.87500000  1
  Ti  Ti1967  1  0.43750000  0.62500000  0.93750000  1
  Ti  Ti1968  1  0.43750000  0.68750000  0.00000000  1
  V  V1969  1  0.43750000  0.68750000  0.06250000  1
  Ti  Ti1970  1  0.43750000  0.68750000  0.12500000  1
  V  V1971  1  0.43750000  0.68750000  0.18750000  1
  Ti  Ti1972  1  0.43750000  0.68750000  0.25000000  1
  V  V1973  1  0.43750000  0.68750000  0.31250000  1
  Ti  Ti1974  1  0.43750000  0.68750000  0.37500000  1
  V  V1975  1  0.43750000  0.68750000  0.43750000  1
  Ti  Ti1976  1  0.43750000  0.68750000  0.50000000  1
  V  V1977  1  0.43750000  0.68750000  0.56250000  1
  Ti  Ti1978  1  0.43750000  0.68750000  0.62500000  1
  V  V1979  1  0.43750000  0.68750000  0.68750000  1
  Ti  Ti1980  1  0.43750000  0.68750000  0.75000000  1
  V  V1981  1  0.43750000  0.68750000  0.81250000  1
  Ti  Ti1982  1  0.43750000  0.68750000  0.87500000  1
  V  V1983  1  0.43750000  0.68750000  0.93750000  1
  V  V1984  1  0.43750000  0.75000000  0.00000000  1
  Ti  Ti1985  1  0.43750000  0.75000000  0.06250000  1
  V  V1986  1  0.43750000  0.75000000  0.12500000  1
  Ti  Ti1987  1  0.43750000  0.75000000  0.18750000  1
  V  V1988  1  0.43750000  0.75000000  0.25000000  1
  Ti  Ti1989  1  0.43750000  0.75000000  0.31250000  1
  V  V1990  1  0.43750000  0.75000000  0.37500000  1
  Ti  Ti1991  1  0.43750000  0.75000000  0.43750000  1
  V  V1992  1  0.43750000  0.75000000  0.50000000  1
  Ti  Ti1993  1  0.43750000  0.75000000  0.56250000  1
  V  V1994  1  0.43750000  0.75000000  0.62500000  1
  Ti  Ti1995  1  0.43750000  0.75000000  0.68750000  1
  V  V1996  1  0.43750000  0.75000000  0.75000000  1
  Ti  Ti1997  1  0.43750000  0.75000000  0.81250000  1
  V  V1998  1  0.43750000  0.75000000  0.87500000  1
  Ti  Ti1999  1  0.43750000  0.75000000  0.93750000  1
  Ti  Ti2000  1  0.43750000  0.81250000  0.00000000  1
  V  V2001  1  0.43750000  0.81250000  0.06250000  1
  Ti  Ti2002  1  0.43750000  0.81250000  0.12500000  1
  V  V2003  1  0.43750000  0.81250000  0.18750000  1
  Ti  Ti2004  1  0.43750000  0.81250000  0.25000000  1
  V  V2005  1  0.43750000  0.81250000  0.31250000  1
  Ti  Ti2006  1  0.43750000  0.81250000  0.37500000  1
  V  V2007  1  0.43750000  0.81250000  0.43750000  1
  Ti  Ti2008  1  0.43750000  0.81250000  0.50000000  1
  V  V2009  1  0.43750000  0.81250000  0.56250000  1
  Ti  Ti2010  1  0.43750000  0.81250000  0.62500000  1
  V  V2011  1  0.43750000  0.81250000  0.68750000  1
  Ti  Ti2012  1  0.43750000  0.81250000  0.75000000  1
  V  V2013  1  0.43750000  0.81250000  0.81250000  1
  Ti  Ti2014  1  0.43750000  0.81250000  0.87500000  1
  V  V2015  1  0.43750000  0.81250000  0.93750000  1
  V  V2016  1  0.43750000  0.87500000  0.00000000  1
  Ti  Ti2017  1  0.43750000  0.87500000  0.06250000  1
  V  V2018  1  0.43750000  0.87500000  0.12500000  1
  Ti  Ti2019  1  0.43750000  0.87500000  0.18750000  1
  V  V2020  1  0.43750000  0.87500000  0.25000000  1
  Ti  Ti2021  1  0.43750000  0.87500000  0.31250000  1
  V  V2022  1  0.43750000  0.87500000  0.37500000  1
  Ti  Ti2023  1  0.43750000  0.87500000  0.43750000  1
  V  V2024  1  0.43750000  0.87500000  0.50000000  1
  Ti  Ti2025  1  0.43750000  0.87500000  0.56250000  1
  V  V2026  1  0.43750000  0.87500000  0.62500000  1
  Ti  Ti2027  1  0.43750000  0.87500000  0.68750000  1
  V  V2028  1  0.43750000  0.87500000  0.75000000  1
  Ti  Ti2029  1  0.43750000  0.87500000  0.81250000  1
  V  V2030  1  0.43750000  0.87500000  0.87500000  1
  Ti  Ti2031  1  0.43750000  0.87500000  0.93750000  1
  Ti  Ti2032  1  0.43750000  0.93750000  0.00000000  1
  V  V2033  1  0.43750000  0.93750000  0.06250000  1
  Ti  Ti2034  1  0.43750000  0.93750000  0.12500000  1
  V  V2035  1  0.43750000  0.93750000  0.18750000  1
  Ti  Ti2036  1  0.43750000  0.93750000  0.25000000  1
  V  V2037  1  0.43750000  0.93750000  0.31250000  1
  Ti  Ti2038  1  0.43750000  0.93750000  0.37500000  1
  V  V2039  1  0.43750000  0.93750000  0.43750000  1
  Ti  Ti2040  1  0.43750000  0.93750000  0.50000000  1
  V  V2041  1  0.43750000  0.93750000  0.56250000  1
  Ti  Ti2042  1  0.43750000  0.93750000  0.62500000  1
  V  V2043  1  0.43750000  0.93750000  0.68750000  1
  Ti  Ti2044  1  0.43750000  0.93750000  0.75000000  1
  V  V2045  1  0.43750000  0.93750000  0.81250000  1
  Ti  Ti2046  1  0.43750000  0.93750000  0.87500000  1
  V  V2047  1  0.43750000  0.93750000  0.93750000  1
  Ti  Ti2048  1  0.50000000  0.00000000  0.00000000  1
  V  V2049  1  0.50000000  0.00000000  0.06250000  1
  Ti  Ti2050  1  0.50000000  0.00000000  0.12500000  1
  V  V2051  1  0.50000000  0.00000000  0.18750000  1
  Ti  Ti2052  1  0.50000000  0.00000000  0.25000000  1
  V  V2053  1  0.50000000  0.00000000  0.31250000  1
  Ti  Ti2054  1  0.50000000  0.00000000  0.37500000  1
  V  V2055  1  0.50000000  0.00000000  0.43750000  1
  Ti  Ti2056  1  0.50000000  0.00000000  0.50000000  1
  V  V2057  1  0.50000000  0.00000000  0.56250000  1
  Ti  Ti2058  1  0.50000000  0.00000000  0.62500000  1
  V  V2059  1  0.50000000  0.00000000  0.68750000  1
  Ti  Ti2060  1  0.50000000  0.00000000  0.75000000  1
  V  V2061  1  0.50000000  0.00000000  0.81250000  1
  Ti  Ti2062  1  0.50000000  0.00000000  0.87500000  1
  V  V2063  1  0.50000000  0.00000000  0.93750000  1
  V  V2064  1  0.50000000  0.06250000  0.00000000  1
  Ti  Ti2065  1  0.50000000  0.06250000  0.06250000  1
  V  V2066  1  0.50000000  0.06250000  0.12500000  1
  Ti  Ti2067  1  0.50000000  0.06250000  0.18750000  1
  V  V2068  1  0.50000000  0.06250000  0.25000000  1
  Ti  Ti2069  1  0.50000000  0.06250000  0.31250000  1
  V  V2070  1  0.50000000  0.06250000  0.37500000  1
  Ti  Ti2071  1  0.50000000  0.06250000  0.43750000  1
  V  V2072  1  0.50000000  0.06250000  0.50000000  1
  Ti  Ti2073  1  0.50000000  0.06250000  0.56250000  1
  V  V2074  1  0.50000000  0.06250000  0.62500000  1
  Ti  Ti2075  1  0.50000000  0.06250000  0.68750000  1
  V  V2076  1  0.50000000  0.06250000  0.75000000  1
  Ti  Ti2077  1  0.50000000  0.06250000  0.81250000  1
  V  V2078  1  0.50000000  0.06250000  0.87500000  1
  Ti  Ti2079  1  0.50000000  0.06250000  0.93750000  1
  Ti  Ti2080  1  0.50000000  0.12500000  0.00000000  1
  V  V2081  1  0.50000000  0.12500000  0.06250000  1
  Ti  Ti2082  1  0.50000000  0.12500000  0.12500000  1
  V  V2083  1  0.50000000  0.12500000  0.18750000  1
  Ti  Ti2084  1  0.50000000  0.12500000  0.25000000  1
  V  V2085  1  0.50000000  0.12500000  0.31250000  1
  Ti  Ti2086  1  0.50000000  0.12500000  0.37500000  1
  V  V2087  1  0.50000000  0.12500000  0.43750000  1
  Ti  Ti2088  1  0.50000000  0.12500000  0.50000000  1
  V  V2089  1  0.50000000  0.12500000  0.56250000  1
  Ti  Ti2090  1  0.50000000  0.12500000  0.62500000  1
  V  V2091  1  0.50000000  0.12500000  0.68750000  1
  Ti  Ti2092  1  0.50000000  0.12500000  0.75000000  1
  V  V2093  1  0.50000000  0.12500000  0.81250000  1
  Ti  Ti2094  1  0.50000000  0.12500000  0.87500000  1
  V  V2095  1  0.50000000  0.12500000  0.93750000  1
  V  V2096  1  0.50000000  0.18750000  0.00000000  1
  Ti  Ti2097  1  0.50000000  0.18750000  0.06250000  1
  V  V2098  1  0.50000000  0.18750000  0.12500000  1
  Ti  Ti2099  1  0.50000000  0.18750000  0.18750000  1
  V  V2100  1  0.50000000  0.18750000  0.25000000  1
  Ti  Ti2101  1  0.50000000  0.18750000  0.31250000  1
  V  V2102  1  0.50000000  0.18750000  0.37500000  1
  Ti  Ti2103  1  0.50000000  0.18750000  0.43750000  1
  V  V2104  1  0.50000000  0.18750000  0.50000000  1
  Ti  Ti2105  1  0.50000000  0.18750000  0.56250000  1
  V  V2106  1  0.50000000  0.18750000  0.62500000  1
  Ti  Ti2107  1  0.50000000  0.18750000  0.68750000  1
  V  V2108  1  0.50000000  0.18750000  0.75000000  1
  Ti  Ti2109  1  0.50000000  0.18750000  0.81250000  1
  V  V2110  1  0.50000000  0.18750000  0.87500000  1
  Ti  Ti2111  1  0.50000000  0.18750000  0.93750000  1
  Ti  Ti2112  1  0.50000000  0.25000000  0.00000000  1
  V  V2113  1  0.50000000  0.25000000  0.06250000  1
  Ti  Ti2114  1  0.50000000  0.25000000  0.12500000  1
  V  V2115  1  0.50000000  0.25000000  0.18750000  1
  Ti  Ti2116  1  0.50000000  0.25000000  0.25000000  1
  V  V2117  1  0.50000000  0.25000000  0.31250000  1
  Ti  Ti2118  1  0.50000000  0.25000000  0.37500000  1
  V  V2119  1  0.50000000  0.25000000  0.43750000  1
  Cr  Cr2120  1  0.50000000  0.25000000  0.50000000  1
  V  V2121  1  0.50000000  0.25000000  0.56250000  1
  Ti  Ti2122  1  0.50000000  0.25000000  0.62500000  1
  V  V2123  1  0.50000000  0.25000000  0.68750000  1
  Ti  Ti2124  1  0.50000000  0.25000000  0.75000000  1
  V  V2125  1  0.50000000  0.25000000  0.81250000  1
  Ti  Ti2126  1  0.50000000  0.25000000  0.87500000  1
  V  V2127  1  0.50000000  0.25000000  0.93750000  1
  V  V2128  1  0.50000000  0.31250000  0.00000000  1
  Ti  Ti2129  1  0.50000000  0.31250000  0.06250000  1
  V  V2130  1  0.50000000  0.31250000  0.12500000  1
  Ti  Ti2131  1  0.50000000  0.31250000  0.18750000  1
  V  V2132  1  0.50000000  0.31250000  0.25000000  1
  Ti  Ti2133  1  0.50000000  0.31250000  0.31250000  1
  V  V2134  1  0.50000000  0.31250000  0.37500000  1
  Cr  Cr2135  1  0.50000000  0.31250000  0.43750000  1
  V  V2136  1  0.50000000  0.31250000  0.50000000  1
  Cr  Cr2137  1  0.50000000  0.31250000  0.56250000  1
  V  V2138  1  0.50000000  0.31250000  0.62500000  1
  Cr  Cr2139  1  0.50000000  0.31250000  0.68750000  1
  V  V2140  1  0.50000000  0.31250000  0.75000000  1
  Ti  Ti2141  1  0.50000000  0.31250000  0.81250000  1
  V  V2142  1  0.50000000  0.31250000  0.87500000  1
  Ti  Ti2143  1  0.50000000  0.31250000  0.93750000  1
  Ti  Ti2144  1  0.50000000  0.37500000  0.00000000  1
  V  V2145  1  0.50000000  0.37500000  0.06250000  1
  Ti  Ti2146  1  0.50000000  0.37500000  0.12500000  1
  V  V2147  1  0.50000000  0.37500000  0.18750000  1
  Ti  Ti2148  1  0.50000000  0.37500000  0.25000000  1
  V  V2149  1  0.50000000  0.37500000  0.31250000  1
  Ti  Ti2150  1  0.50000000  0.37500000  0.37500000  1
  V  V2151  1  0.50000000  0.37500000  0.43750000  1
  V  V2152  1  0.50000000  0.37500000  0.50000000  1
  V  V2153  1  0.50000000  0.37500000  0.56250000  1
  Cr  Cr2154  1  0.50000000  0.37500000  0.62500000  1
  V  V2155  1  0.50000000  0.37500000  0.68750000  1
  Cr  Cr2156  1  0.50000000  0.37500000  0.75000000  1
  V  V2157  1  0.50000000  0.37500000  0.81250000  1
  Ti  Ti2158  1  0.50000000  0.37500000  0.87500000  1
  V  V2159  1  0.50000000  0.37500000  0.93750000  1
  V  V2160  1  0.50000000  0.43750000  0.00000000  1
  Ti  Ti2161  1  0.50000000  0.43750000  0.06250000  1
  V  V2162  1  0.50000000  0.43750000  0.12500000  1
  Ti  Ti2163  1  0.50000000  0.43750000  0.18750000  1
  V  V2164  1  0.50000000  0.43750000  0.25000000  1
  Ti  Ti2165  1  0.50000000  0.43750000  0.31250000  1
  V  V2166  1  0.50000000  0.43750000  0.37500000  1
  Ti  Ti2167  1  0.50000000  0.43750000  0.43750000  1
  V  V2168  1  0.50000000  0.43750000  0.50000000  1
  Cr  Cr2169  1  0.50000000  0.43750000  0.56250000  1
  V  V2170  1  0.50000000  0.43750000  0.62500000  1
  Cr  Cr2171  1  0.50000000  0.43750000  0.68750000  1
  V  V2172  1  0.50000000  0.43750000  0.75000000  1
  Cr  Cr2173  1  0.50000000  0.43750000  0.81250000  1
  V  V2174  1  0.50000000  0.43750000  0.87500000  1
  Ti  Ti2175  1  0.50000000  0.43750000  0.93750000  1
  Ti  Ti2176  1  0.50000000  0.50000000  0.00000000  1
  V  V2177  1  0.50000000  0.50000000  0.06250000  1
  Ti  Ti2178  1  0.50000000  0.50000000  0.12500000  1
  V  V2179  1  0.50000000  0.50000000  0.18750000  1
  Ti  Ti2180  1  0.50000000  0.50000000  0.25000000  1
  V  V2181  1  0.50000000  0.50000000  0.31250000  1
  Ti  Ti2182  1  0.50000000  0.50000000  0.37500000  1
  V  V2183  1  0.50000000  0.50000000  0.43750000  1
  Ti  Ti2184  1  0.50000000  0.50000000  0.50000000  1
  V  V2185  1  0.50000000  0.50000000  0.56250000  1
  Ti  Ti2186  1  0.50000000  0.50000000  0.62500000  1
  V  V2187  1  0.50000000  0.50000000  0.68750000  1
  Cr  Cr2188  1  0.50000000  0.50000000  0.75000000  1
  V  V2189  1  0.50000000  0.50000000  0.81250000  1
  Ti  Ti2190  1  0.50000000  0.50000000  0.87500000  1
  V  V2191  1  0.50000000  0.50000000  0.93750000  1
  V  V2192  1  0.50000000  0.56250000  0.00000000  1
  Ti  Ti2193  1  0.50000000  0.56250000  0.06250000  1
  V  V2194  1  0.50000000  0.56250000  0.12500000  1
  Ti  Ti2195  1  0.50000000  0.56250000  0.18750000  1
  V  V2196  1  0.50000000  0.56250000  0.25000000  1
  Ti  Ti2197  1  0.50000000  0.56250000  0.31250000  1
  V  V2198  1  0.50000000  0.56250000  0.37500000  1
  Ti  Ti2199  1  0.50000000  0.56250000  0.43750000  1
  V  V2200  1  0.50000000  0.56250000  0.50000000  1
  Ti  Ti2201  1  0.50000000  0.56250000  0.56250000  1
  V  V2202  1  0.50000000  0.56250000  0.62500000  1
  Ti  Ti2203  1  0.50000000  0.56250000  0.68750000  1
  V  V2204  1  0.50000000  0.56250000  0.75000000  1
  Ti  Ti2205  1  0.50000000  0.56250000  0.81250000  1
  V  V2206  1  0.50000000  0.56250000  0.87500000  1
  Ti  Ti2207  1  0.50000000  0.56250000  0.93750000  1
  Ti  Ti2208  1  0.50000000  0.62500000  0.00000000  1
  V  V2209  1  0.50000000  0.62500000  0.06250000  1
  Ti  Ti2210  1  0.50000000  0.62500000  0.12500000  1
  V  V2211  1  0.50000000  0.62500000  0.18750000  1
  Ti  Ti2212  1  0.50000000  0.62500000  0.25000000  1
  V  V2213  1  0.50000000  0.62500000  0.31250000  1
  Ti  Ti2214  1  0.50000000  0.62500000  0.37500000  1
  V  V2215  1  0.50000000  0.62500000  0.43750000  1
  Ti  Ti2216  1  0.50000000  0.62500000  0.50000000  1
  V  V2217  1  0.50000000  0.62500000  0.56250000  1
  Ti  Ti2218  1  0.50000000  0.62500000  0.62500000  1
  V  V2219  1  0.50000000  0.62500000  0.68750000  1
  Ti  Ti2220  1  0.50000000  0.62500000  0.75000000  1
  V  V2221  1  0.50000000  0.62500000  0.81250000  1
  Ti  Ti2222  1  0.50000000  0.62500000  0.87500000  1
  V  V2223  1  0.50000000  0.62500000  0.93750000  1
  V  V2224  1  0.50000000  0.68750000  0.00000000  1
  Ti  Ti2225  1  0.50000000  0.68750000  0.06250000  1
  V  V2226  1  0.50000000  0.68750000  0.12500000  1
  Ti  Ti2227  1  0.50000000  0.68750000  0.18750000  1
  V  V2228  1  0.50000000  0.68750000  0.25000000  1
  Ti  Ti2229  1  0.50000000  0.68750000  0.31250000  1
  V  V2230  1  0.50000000  0.68750000  0.37500000  1
  Ti  Ti2231  1  0.50000000  0.68750000  0.43750000  1
  V  V2232  1  0.50000000  0.68750000  0.50000000  1
  Ti  Ti2233  1  0.50000000  0.68750000  0.56250000  1
  V  V2234  1  0.50000000  0.68750000  0.62500000  1
  Ti  Ti2235  1  0.50000000  0.68750000  0.68750000  1
  V  V2236  1  0.50000000  0.68750000  0.75000000  1
  Ti  Ti2237  1  0.50000000  0.68750000  0.81250000  1
  V  V2238  1  0.50000000  0.68750000  0.87500000  1
  Ti  Ti2239  1  0.50000000  0.68750000  0.93750000  1
  Ti  Ti2240  1  0.50000000  0.75000000  0.00000000  1
  V  V2241  1  0.50000000  0.75000000  0.06250000  1
  Ti  Ti2242  1  0.50000000  0.75000000  0.12500000  1
  V  V2243  1  0.50000000  0.75000000  0.18750000  1
  Ti  Ti2244  1  0.50000000  0.75000000  0.25000000  1
  V  V2245  1  0.50000000  0.75000000  0.31250000  1
  Ti  Ti2246  1  0.50000000  0.75000000  0.37500000  1
  V  V2247  1  0.50000000  0.75000000  0.43750000  1
  Ti  Ti2248  1  0.50000000  0.75000000  0.50000000  1
  V  V2249  1  0.50000000  0.75000000  0.56250000  1
  Ti  Ti2250  1  0.50000000  0.75000000  0.62500000  1
  V  V2251  1  0.50000000  0.75000000  0.68750000  1
  Ti  Ti2252  1  0.50000000  0.75000000  0.75000000  1
  V  V2253  1  0.50000000  0.75000000  0.81250000  1
  Ti  Ti2254  1  0.50000000  0.75000000  0.87500000  1
  V  V2255  1  0.50000000  0.75000000  0.93750000  1
  V  V2256  1  0.50000000  0.81250000  0.00000000  1
  Ti  Ti2257  1  0.50000000  0.81250000  0.06250000  1
  V  V2258  1  0.50000000  0.81250000  0.12500000  1
  Ti  Ti2259  1  0.50000000  0.81250000  0.18750000  1
  V  V2260  1  0.50000000  0.81250000  0.25000000  1
  Ti  Ti2261  1  0.50000000  0.81250000  0.31250000  1
  V  V2262  1  0.50000000  0.81250000  0.37500000  1
  Ti  Ti2263  1  0.50000000  0.81250000  0.43750000  1
  V  V2264  1  0.50000000  0.81250000  0.50000000  1
  Ti  Ti2265  1  0.50000000  0.81250000  0.56250000  1
  V  V2266  1  0.50000000  0.81250000  0.62500000  1
  Ti  Ti2267  1  0.50000000  0.81250000  0.68750000  1
  V  V2268  1  0.50000000  0.81250000  0.75000000  1
  Ti  Ti2269  1  0.50000000  0.81250000  0.81250000  1
  V  V2270  1  0.50000000  0.81250000  0.87500000  1
  Ti  Ti2271  1  0.50000000  0.81250000  0.93750000  1
  Ti  Ti2272  1  0.50000000  0.87500000  0.00000000  1
  V  V2273  1  0.50000000  0.87500000  0.06250000  1
  Ti  Ti2274  1  0.50000000  0.87500000  0.12500000  1
  V  V2275  1  0.50000000  0.87500000  0.18750000  1
  Ti  Ti2276  1  0.50000000  0.87500000  0.25000000  1
  V  V2277  1  0.50000000  0.87500000  0.31250000  1
  Ti  Ti2278  1  0.50000000  0.87500000  0.37500000  1
  V  V2279  1  0.50000000  0.87500000  0.43750000  1
  Ti  Ti2280  1  0.50000000  0.87500000  0.50000000  1
  V  V2281  1  0.50000000  0.87500000  0.56250000  1
  Ti  Ti2282  1  0.50000000  0.87500000  0.62500000  1
  V  V2283  1  0.50000000  0.87500000  0.68750000  1
  Ti  Ti2284  1  0.50000000  0.87500000  0.75000000  1
  V  V2285  1  0.50000000  0.87500000  0.81250000  1
  Ti  Ti2286  1  0.50000000  0.87500000  0.87500000  1
  V  V2287  1  0.50000000  0.87500000  0.93750000  1
  V  V2288  1  0.50000000  0.93750000  0.00000000  1
  Ti  Ti2289  1  0.50000000  0.93750000  0.06250000  1
  V  V2290  1  0.50000000  0.93750000  0.12500000  1
  Ti  Ti2291  1  0.50000000  0.93750000  0.18750000  1
  V  V2292  1  0.50000000  0.93750000  0.25000000  1
  Ti  Ti2293  1  0.50000000  0.93750000  0.31250000  1
  V  V2294  1  0.50000000  0.93750000  0.37500000  1
  Ti  Ti2295  1  0.50000000  0.93750000  0.43750000  1
  V  V2296  1  0.50000000  0.93750000  0.50000000  1
  Ti  Ti2297  1  0.50000000  0.93750000  0.56250000  1
  V  V2298  1  0.50000000  0.93750000  0.62500000  1
  Ti  Ti2299  1  0.50000000  0.93750000  0.68750000  1
  V  V2300  1  0.50000000  0.93750000  0.75000000  1
  Ti  Ti2301  1  0.50000000  0.93750000  0.81250000  1
  V  V2302  1  0.50000000  0.93750000  0.87500000  1
  Ti  Ti2303  1  0.50000000  0.93750000  0.93750000  1
  V  V2304  1  0.56250000  0.00000000  0.00000000  1
  Ti  Ti2305  1  0.56250000  0.00000000  0.06250000  1
  V  V2306  1  0.56250000  0.00000000  0.12500000  1
  Ti  Ti2307  1  0.56250000  0.00000000  0.18750000  1
  V  V2308  1  0.56250000  0.00000000  0.25000000  1
  Ti  Ti2309  1  0.56250000  0.00000000  0.31250000  1
  V  V2310  1  0.56250000  0.00000000  0.37500000  1
  Ti  Ti2311  1  0.56250000  0.00000000  0.43750000  1
  V  V2312  1  0.56250000  0.00000000  0.50000000  1
  Ti  Ti2313  1  0.56250000  0.00000000  0.56250000  1
  V  V2314  1  0.56250000  0.00000000  0.62500000  1
  Ti  Ti2315  1  0.56250000  0.00000000  0.68750000  1
  V  V2316  1  0.56250000  0.00000000  0.75000000  1
  Ti  Ti2317  1  0.56250000  0.00000000  0.81250000  1
  V  V2318  1  0.56250000  0.00000000  0.87500000  1
  Ti  Ti2319  1  0.56250000  0.00000000  0.93750000  1
  Ti  Ti2320  1  0.56250000  0.06250000  0.00000000  1
  V  V2321  1  0.56250000  0.06250000  0.06250000  1
  Ti  Ti2322  1  0.56250000  0.06250000  0.12500000  1
  V  V2323  1  0.56250000  0.06250000  0.18750000  1
  Ti  Ti2324  1  0.56250000  0.06250000  0.25000000  1
  V  V2325  1  0.56250000  0.06250000  0.31250000  1
  Ti  Ti2326  1  0.56250000  0.06250000  0.37500000  1
  V  V2327  1  0.56250000  0.06250000  0.43750000  1
  Ti  Ti2328  1  0.56250000  0.06250000  0.50000000  1
  V  V2329  1  0.56250000  0.06250000  0.56250000  1
  Ti  Ti2330  1  0.56250000  0.06250000  0.62500000  1
  V  V2331  1  0.56250000  0.06250000  0.68750000  1
  Ti  Ti2332  1  0.56250000  0.06250000  0.75000000  1
  V  V2333  1  0.56250000  0.06250000  0.81250000  1
  Ti  Ti2334  1  0.56250000  0.06250000  0.87500000  1
  V  V2335  1  0.56250000  0.06250000  0.93750000  1
  V  V2336  1  0.56250000  0.12500000  0.00000000  1
  Ti  Ti2337  1  0.56250000  0.12500000  0.06250000  1
  V  V2338  1  0.56250000  0.12500000  0.12500000  1
  Ti  Ti2339  1  0.56250000  0.12500000  0.18750000  1
  V  V2340  1  0.56250000  0.12500000  0.25000000  1
  Ti  Ti2341  1  0.56250000  0.12500000  0.31250000  1
  V  V2342  1  0.56250000  0.12500000  0.37500000  1
  Ti  Ti2343  1  0.56250000  0.12500000  0.43750000  1
  V  V2344  1  0.56250000  0.12500000  0.50000000  1
  Ti  Ti2345  1  0.56250000  0.12500000  0.56250000  1
  V  V2346  1  0.56250000  0.12500000  0.62500000  1
  Ti  Ti2347  1  0.56250000  0.12500000  0.68750000  1
  V  V2348  1  0.56250000  0.12500000  0.75000000  1
  Ti  Ti2349  1  0.56250000  0.12500000  0.81250000  1
  V  V2350  1  0.56250000  0.12500000  0.87500000  1
  Ti  Ti2351  1  0.56250000  0.12500000  0.93750000  1
  Ti  Ti2352  1  0.56250000  0.18750000  0.00000000  1
  V  V2353  1  0.56250000  0.18750000  0.06250000  1
  Ti  Ti2354  1  0.56250000  0.18750000  0.12500000  1
  V  V2355  1  0.56250000  0.18750000  0.18750000  1
  Ti  Ti2356  1  0.56250000  0.18750000  0.25000000  1
  V  V2357  1  0.56250000  0.18750000  0.31250000  1
  Ti  Ti2358  1  0.56250000  0.18750000  0.37500000  1
  V  V2359  1  0.56250000  0.18750000  0.43750000  1
  Ti  Ti2360  1  0.56250000  0.18750000  0.50000000  1
  V  V2361  1  0.56250000  0.18750000  0.56250000  1
  Ti  Ti2362  1  0.56250000  0.18750000  0.62500000  1
  V  V2363  1  0.56250000  0.18750000  0.68750000  1
  Ti  Ti2364  1  0.56250000  0.18750000  0.75000000  1
  V  V2365  1  0.56250000  0.18750000  0.81250000  1
  Ti  Ti2366  1  0.56250000  0.18750000  0.87500000  1
  V  V2367  1  0.56250000  0.18750000  0.93750000  1
  V  V2368  1  0.56250000  0.25000000  0.00000000  1
  Ti  Ti2369  1  0.56250000  0.25000000  0.06250000  1
  V  V2370  1  0.56250000  0.25000000  0.12500000  1
  Ti  Ti2371  1  0.56250000  0.25000000  0.18750000  1
  V  V2372  1  0.56250000  0.25000000  0.25000000  1
  Ti  Ti2373  1  0.56250000  0.25000000  0.31250000  1
  V  V2374  1  0.56250000  0.25000000  0.37500000  1
  Ti  Ti2375  1  0.56250000  0.25000000  0.43750000  1
  V  V2376  1  0.56250000  0.25000000  0.50000000  1
  Ti  Ti2377  1  0.56250000  0.25000000  0.56250000  1
  V  V2378  1  0.56250000  0.25000000  0.62500000  1
  Ti  Ti2379  1  0.56250000  0.25000000  0.68750000  1
  V  V2380  1  0.56250000  0.25000000  0.75000000  1
  Ti  Ti2381  1  0.56250000  0.25000000  0.81250000  1
  V  V2382  1  0.56250000  0.25000000  0.87500000  1
  Ti  Ti2383  1  0.56250000  0.25000000  0.93750000  1
  Ti  Ti2384  1  0.56250000  0.31250000  0.00000000  1
  V  V2385  1  0.56250000  0.31250000  0.06250000  1
  Ti  Ti2386  1  0.56250000  0.31250000  0.12500000  1
  V  V2387  1  0.56250000  0.31250000  0.18750000  1
  Ti  Ti2388  1  0.56250000  0.31250000  0.25000000  1
  V  V2389  1  0.56250000  0.31250000  0.31250000  1
  Ti  Ti2390  1  0.56250000  0.31250000  0.37500000  1
  V  V2391  1  0.56250000  0.31250000  0.43750000  1
  Ti  Ti2392  1  0.56250000  0.31250000  0.50000000  1
  V  V2393  1  0.56250000  0.31250000  0.56250000  1
  Ti  Ti2394  1  0.56250000  0.31250000  0.62500000  1
  V  V2395  1  0.56250000  0.31250000  0.68750000  1
  Ti  Ti2396  1  0.56250000  0.31250000  0.75000000  1
  V  V2397  1  0.56250000  0.31250000  0.81250000  1
  Ti  Ti2398  1  0.56250000  0.31250000  0.87500000  1
  V  V2399  1  0.56250000  0.31250000  0.93750000  1
  V  V2400  1  0.56250000  0.37500000  0.00000000  1
  Ti  Ti2401  1  0.56250000  0.37500000  0.06250000  1
  V  V2402  1  0.56250000  0.37500000  0.12500000  1
  Ti  Ti2403  1  0.56250000  0.37500000  0.18750000  1
  V  V2404  1  0.56250000  0.37500000  0.25000000  1
  Ti  Ti2405  1  0.56250000  0.37500000  0.31250000  1
  V  V2406  1  0.56250000  0.37500000  0.37500000  1
  Ti  Ti2407  1  0.56250000  0.37500000  0.43750000  1
  V  V2408  1  0.56250000  0.37500000  0.50000000  1
  Ti  Ti2409  1  0.56250000  0.37500000  0.56250000  1
  V  V2410  1  0.56250000  0.37500000  0.62500000  1
  Cr  Cr2411  1  0.56250000  0.37500000  0.68750000  1
  V  V2412  1  0.56250000  0.37500000  0.75000000  1
  Ti  Ti2413  1  0.56250000  0.37500000  0.81250000  1
  V  V2414  1  0.56250000  0.37500000  0.87500000  1
  Ti  Ti2415  1  0.56250000  0.37500000  0.93750000  1
  Ti  Ti2416  1  0.56250000  0.43750000  0.00000000  1
  V  V2417  1  0.56250000  0.43750000  0.06250000  1
  Ti  Ti2418  1  0.56250000  0.43750000  0.12500000  1
  V  V2419  1  0.56250000  0.43750000  0.18750000  1
  Ti  Ti2420  1  0.56250000  0.43750000  0.25000000  1
  V  V2421  1  0.56250000  0.43750000  0.31250000  1
  Ti  Ti2422  1  0.56250000  0.43750000  0.37500000  1
  V  V2423  1  0.56250000  0.43750000  0.43750000  1
  Ti  Ti2424  1  0.56250000  0.43750000  0.50000000  1
  V  V2425  1  0.56250000  0.43750000  0.56250000  1
  Ti  Ti2426  1  0.56250000  0.43750000  0.62500000  1
  V  V2427  1  0.56250000  0.43750000  0.68750000  1
  Ti  Ti2428  1  0.56250000  0.43750000  0.75000000  1
  V  V2429  1  0.56250000  0.43750000  0.81250000  1
  Ti  Ti2430  1  0.56250000  0.43750000  0.87500000  1
  V  V2431  1  0.56250000  0.43750000  0.93750000  1
  V  V2432  1  0.56250000  0.50000000  0.00000000  1
  Ti  Ti2433  1  0.56250000  0.50000000  0.06250000  1
  V  V2434  1  0.56250000  0.50000000  0.12500000  1
  Ti  Ti2435  1  0.56250000  0.50000000  0.18750000  1
  V  V2436  1  0.56250000  0.50000000  0.25000000  1
  Ti  Ti2437  1  0.56250000  0.50000000  0.31250000  1
  V  V2438  1  0.56250000  0.50000000  0.37500000  1
  Ti  Ti2439  1  0.56250000  0.50000000  0.43750000  1
  V  V2440  1  0.56250000  0.50000000  0.50000000  1
  Ti  Ti2441  1  0.56250000  0.50000000  0.56250000  1
  V  V2442  1  0.56250000  0.50000000  0.62500000  1
  Ti  Ti2443  1  0.56250000  0.50000000  0.68750000  1
  V  V2444  1  0.56250000  0.50000000  0.75000000  1
  Ti  Ti2445  1  0.56250000  0.50000000  0.81250000  1
  V  V2446  1  0.56250000  0.50000000  0.87500000  1
  Ti  Ti2447  1  0.56250000  0.50000000  0.93750000  1
  Ti  Ti2448  1  0.56250000  0.56250000  0.00000000  1
  V  V2449  1  0.56250000  0.56250000  0.06250000  1
  Ti  Ti2450  1  0.56250000  0.56250000  0.12500000  1
  V  V2451  1  0.56250000  0.56250000  0.18750000  1
  Ti  Ti2452  1  0.56250000  0.56250000  0.25000000  1
  V  V2453  1  0.56250000  0.56250000  0.31250000  1
  Ti  Ti2454  1  0.56250000  0.56250000  0.37500000  1
  V  V2455  1  0.56250000  0.56250000  0.43750000  1
  Ti  Ti2456  1  0.56250000  0.56250000  0.50000000  1
  V  V2457  1  0.56250000  0.56250000  0.56250000  1
  Ti  Ti2458  1  0.56250000  0.56250000  0.62500000  1
  V  V2459  1  0.56250000  0.56250000  0.68750000  1
  Ti  Ti2460  1  0.56250000  0.56250000  0.75000000  1
  V  V2461  1  0.56250000  0.56250000  0.81250000  1
  Ti  Ti2462  1  0.56250000  0.56250000  0.87500000  1
  V  V2463  1  0.56250000  0.56250000  0.93750000  1
  V  V2464  1  0.56250000  0.62500000  0.00000000  1
  Ti  Ti2465  1  0.56250000  0.62500000  0.06250000  1
  V  V2466  1  0.56250000  0.62500000  0.12500000  1
  Ti  Ti2467  1  0.56250000  0.62500000  0.18750000  1
  V  V2468  1  0.56250000  0.62500000  0.25000000  1
  Ti  Ti2469  1  0.56250000  0.62500000  0.31250000  1
  V  V2470  1  0.56250000  0.62500000  0.37500000  1
  Ti  Ti2471  1  0.56250000  0.62500000  0.43750000  1
  V  V2472  1  0.56250000  0.62500000  0.50000000  1
  Ti  Ti2473  1  0.56250000  0.62500000  0.56250000  1
  V  V2474  1  0.56250000  0.62500000  0.62500000  1
  Ti  Ti2475  1  0.56250000  0.62500000  0.68750000  1
  V  V2476  1  0.56250000  0.62500000  0.75000000  1
  Ti  Ti2477  1  0.56250000  0.62500000  0.81250000  1
  V  V2478  1  0.56250000  0.62500000  0.87500000  1
  Ti  Ti2479  1  0.56250000  0.62500000  0.93750000  1
  Ti  Ti2480  1  0.56250000  0.68750000  0.00000000  1
  V  V2481  1  0.56250000  0.68750000  0.06250000  1
  Ti  Ti2482  1  0.56250000  0.68750000  0.12500000  1
  V  V2483  1  0.56250000  0.68750000  0.18750000  1
  Ti  Ti2484  1  0.56250000  0.68750000  0.25000000  1
  V  V2485  1  0.56250000  0.68750000  0.31250000  1
  Ti  Ti2486  1  0.56250000  0.68750000  0.37500000  1
  V  V2487  1  0.56250000  0.68750000  0.43750000  1
  Ti  Ti2488  1  0.56250000  0.68750000  0.50000000  1
  V  V2489  1  0.56250000  0.68750000  0.56250000  1
  Ti  Ti2490  1  0.56250000  0.68750000  0.62500000  1
  V  V2491  1  0.56250000  0.68750000  0.68750000  1
  Ti  Ti2492  1  0.56250000  0.68750000  0.75000000  1
  V  V2493  1  0.56250000  0.68750000  0.81250000  1
  Ti  Ti2494  1  0.56250000  0.68750000  0.87500000  1
  V  V2495  1  0.56250000  0.68750000  0.93750000  1
  V  V2496  1  0.56250000  0.75000000  0.00000000  1
  Ti  Ti2497  1  0.56250000  0.75000000  0.06250000  1
  V  V2498  1  0.56250000  0.75000000  0.12500000  1
  Ti  Ti2499  1  0.56250000  0.75000000  0.18750000  1
  V  V2500  1  0.56250000  0.75000000  0.25000000  1
  Ti  Ti2501  1  0.56250000  0.75000000  0.31250000  1
  V  V2502  1  0.56250000  0.75000000  0.37500000  1
  Ti  Ti2503  1  0.56250000  0.75000000  0.43750000  1
  V  V2504  1  0.56250000  0.75000000  0.50000000  1
  Ti  Ti2505  1  0.56250000  0.75000000  0.56250000  1
  V  V2506  1  0.56250000  0.75000000  0.62500000  1
  Ti  Ti2507  1  0.56250000  0.75000000  0.68750000  1
  V  V2508  1  0.56250000  0.75000000  0.75000000  1
  Ti  Ti2509  1  0.56250000  0.75000000  0.81250000  1
  V  V2510  1  0.56250000  0.75000000  0.87500000  1
  Ti  Ti2511  1  0.56250000  0.75000000  0.93750000  1
  Ti  Ti2512  1  0.56250000  0.81250000  0.00000000  1
  V  V2513  1  0.56250000  0.81250000  0.06250000  1
  Ti  Ti2514  1  0.56250000  0.81250000  0.12500000  1
  V  V2515  1  0.56250000  0.81250000  0.18750000  1
  Ti  Ti2516  1  0.56250000  0.81250000  0.25000000  1
  V  V2517  1  0.56250000  0.81250000  0.31250000  1
  Ti  Ti2518  1  0.56250000  0.81250000  0.37500000  1
  V  V2519  1  0.56250000  0.81250000  0.43750000  1
  Ti  Ti2520  1  0.56250000  0.81250000  0.50000000  1
  V  V2521  1  0.56250000  0.81250000  0.56250000  1
  Ti  Ti2522  1  0.56250000  0.81250000  0.62500000  1
  V  V2523  1  0.56250000  0.81250000  0.68750000  1
  Ti  Ti2524  1  0.56250000  0.81250000  0.75000000  1
  V  V2525  1  0.56250000  0.81250000  0.81250000  1
  Ti  Ti2526  1  0.56250000  0.81250000  0.87500000  1
  V  V2527  1  0.56250000  0.81250000  0.93750000  1
  V  V2528  1  0.56250000  0.87500000  0.00000000  1
  Ti  Ti2529  1  0.56250000  0.87500000  0.06250000  1
  V  V2530  1  0.56250000  0.87500000  0.12500000  1
  Ti  Ti2531  1  0.56250000  0.87500000  0.18750000  1
  V  V2532  1  0.56250000  0.87500000  0.25000000  1
  Ti  Ti2533  1  0.56250000  0.87500000  0.31250000  1
  V  V2534  1  0.56250000  0.87500000  0.37500000  1
  Ti  Ti2535  1  0.56250000  0.87500000  0.43750000  1
  V  V2536  1  0.56250000  0.87500000  0.50000000  1
  Ti  Ti2537  1  0.56250000  0.87500000  0.56250000  1
  V  V2538  1  0.56250000  0.87500000  0.62500000  1
  Ti  Ti2539  1  0.56250000  0.87500000  0.68750000  1
  V  V2540  1  0.56250000  0.87500000  0.75000000  1
  Ti  Ti2541  1  0.56250000  0.87500000  0.81250000  1
  V  V2542  1  0.56250000  0.87500000  0.87500000  1
  Ti  Ti2543  1  0.56250000  0.87500000  0.93750000  1
  Ti  Ti2544  1  0.56250000  0.93750000  0.00000000  1
  V  V2545  1  0.56250000  0.93750000  0.06250000  1
  Ti  Ti2546  1  0.56250000  0.93750000  0.12500000  1
  V  V2547  1  0.56250000  0.93750000  0.18750000  1
  Ti  Ti2548  1  0.56250000  0.93750000  0.25000000  1
  V  V2549  1  0.56250000  0.93750000  0.31250000  1
  Ti  Ti2550  1  0.56250000  0.93750000  0.37500000  1
  V  V2551  1  0.56250000  0.93750000  0.43750000  1
  Ti  Ti2552  1  0.56250000  0.93750000  0.50000000  1
  V  V2553  1  0.56250000  0.93750000  0.56250000  1
  Ti  Ti2554  1  0.56250000  0.93750000  0.62500000  1
  V  V2555  1  0.56250000  0.93750000  0.68750000  1
  Ti  Ti2556  1  0.56250000  0.93750000  0.75000000  1
  V  V2557  1  0.56250000  0.93750000  0.81250000  1
  Ti  Ti2558  1  0.56250000  0.93750000  0.87500000  1
  V  V2559  1  0.56250000  0.93750000  0.93750000  1
  Ti  Ti2560  1  0.62500000  0.00000000  0.00000000  1
  V  V2561  1  0.62500000  0.00000000  0.06250000  1
  Ti  Ti2562  1  0.62500000  0.00000000  0.12500000  1
  V  V2563  1  0.62500000  0.00000000  0.18750000  1
  Ti  Ti2564  1  0.62500000  0.00000000  0.25000000  1
  V  V2565  1  0.62500000  0.00000000  0.31250000  1
  Ti  Ti2566  1  0.62500000  0.00000000  0.37500000  1
  V  V2567  1  0.62500000  0.00000000  0.43750000  1
  Ti  Ti2568  1  0.62500000  0.00000000  0.50000000  1
  V  V2569  1  0.62500000  0.00000000  0.56250000  1
  Ti  Ti2570  1  0.62500000  0.00000000  0.62500000  1
  V  V2571  1  0.62500000  0.00000000  0.68750000  1
  Ti  Ti2572  1  0.62500000  0.00000000  0.75000000  1
  V  V2573  1  0.62500000  0.00000000  0.81250000  1
  Ti  Ti2574  1  0.62500000  0.00000000  0.87500000  1
  V  V2575  1  0.62500000  0.00000000  0.93750000  1
  V  V2576  1  0.62500000  0.06250000  0.00000000  1
  Ti  Ti2577  1  0.62500000  0.06250000  0.06250000  1
  V  V2578  1  0.62500000  0.06250000  0.12500000  1
  Ti  Ti2579  1  0.62500000  0.06250000  0.18750000  1
  V  V2580  1  0.62500000  0.06250000  0.25000000  1
  Ti  Ti2581  1  0.62500000  0.06250000  0.31250000  1
  V  V2582  1  0.62500000  0.06250000  0.37500000  1
  Ti  Ti2583  1  0.62500000  0.06250000  0.43750000  1
  V  V2584  1  0.62500000  0.06250000  0.50000000  1
  Ti  Ti2585  1  0.62500000  0.06250000  0.56250000  1
  V  V2586  1  0.62500000  0.06250000  0.62500000  1
  Ti  Ti2587  1  0.62500000  0.06250000  0.68750000  1
  V  V2588  1  0.62500000  0.06250000  0.75000000  1
  Ti  Ti2589  1  0.62500000  0.06250000  0.81250000  1
  V  V2590  1  0.62500000  0.06250000  0.87500000  1
  Ti  Ti2591  1  0.62500000  0.06250000  0.93750000  1
  Ti  Ti2592  1  0.62500000  0.12500000  0.00000000  1
  V  V2593  1  0.62500000  0.12500000  0.06250000  1
  Ti  Ti2594  1  0.62500000  0.12500000  0.12500000  1
  V  V2595  1  0.62500000  0.12500000  0.18750000  1
  Ti  Ti2596  1  0.62500000  0.12500000  0.25000000  1
  V  V2597  1  0.62500000  0.12500000  0.31250000  1
  Ti  Ti2598  1  0.62500000  0.12500000  0.37500000  1
  V  V2599  1  0.62500000  0.12500000  0.43750000  1
  Ti  Ti2600  1  0.62500000  0.12500000  0.50000000  1
  V  V2601  1  0.62500000  0.12500000  0.56250000  1
  Ti  Ti2602  1  0.62500000  0.12500000  0.62500000  1
  V  V2603  1  0.62500000  0.12500000  0.68750000  1
  Ti  Ti2604  1  0.62500000  0.12500000  0.75000000  1
  V  V2605  1  0.62500000  0.12500000  0.81250000  1
  Ti  Ti2606  1  0.62500000  0.12500000  0.87500000  1
  V  V2607  1  0.62500000  0.12500000  0.93750000  1
  V  V2608  1  0.62500000  0.18750000  0.00000000  1
  Ti  Ti2609  1  0.62500000  0.18750000  0.06250000  1
  V  V2610  1  0.62500000  0.18750000  0.12500000  1
  Ti  Ti2611  1  0.62500000  0.18750000  0.18750000  1
  V  V2612  1  0.62500000  0.18750000  0.25000000  1
  Ti  Ti2613  1  0.62500000  0.18750000  0.31250000  1
  V  V2614  1  0.62500000  0.18750000  0.37500000  1
  Ti  Ti2615  1  0.62500000  0.18750000  0.43750000  1
  V  V2616  1  0.62500000  0.18750000  0.50000000  1
  Ti  Ti2617  1  0.62500000  0.18750000  0.56250000  1
  V  V2618  1  0.62500000  0.18750000  0.62500000  1
  Ti  Ti2619  1  0.62500000  0.18750000  0.68750000  1
  V  V2620  1  0.62500000  0.18750000  0.75000000  1
  Ti  Ti2621  1  0.62500000  0.18750000  0.81250000  1
  V  V2622  1  0.62500000  0.18750000  0.87500000  1
  Ti  Ti2623  1  0.62500000  0.18750000  0.93750000  1
  Ti  Ti2624  1  0.62500000  0.25000000  0.00000000  1
  V  V2625  1  0.62500000  0.25000000  0.06250000  1
  Ti  Ti2626  1  0.62500000  0.25000000  0.12500000  1
  V  V2627  1  0.62500000  0.25000000  0.18750000  1
  Ti  Ti2628  1  0.62500000  0.25000000  0.25000000  1
  V  V2629  1  0.62500000  0.25000000  0.31250000  1
  Ti  Ti2630  1  0.62500000  0.25000000  0.37500000  1
  V  V2631  1  0.62500000  0.25000000  0.43750000  1
  Ti  Ti2632  1  0.62500000  0.25000000  0.50000000  1
  V  V2633  1  0.62500000  0.25000000  0.56250000  1
  Ti  Ti2634  1  0.62500000  0.25000000  0.62500000  1
  V  V2635  1  0.62500000  0.25000000  0.68750000  1
  Ti  Ti2636  1  0.62500000  0.25000000  0.75000000  1
  V  V2637  1  0.62500000  0.25000000  0.81250000  1
  Ti  Ti2638  1  0.62500000  0.25000000  0.87500000  1
  V  V2639  1  0.62500000  0.25000000  0.93750000  1
  V  V2640  1  0.62500000  0.31250000  0.00000000  1
  Ti  Ti2641  1  0.62500000  0.31250000  0.06250000  1
  V  V2642  1  0.62500000  0.31250000  0.12500000  1
  Ti  Ti2643  1  0.62500000  0.31250000  0.18750000  1
  V  V2644  1  0.62500000  0.31250000  0.25000000  1
  Ti  Ti2645  1  0.62500000  0.31250000  0.31250000  1
  V  V2646  1  0.62500000  0.31250000  0.37500000  1
  Ti  Ti2647  1  0.62500000  0.31250000  0.43750000  1
  V  V2648  1  0.62500000  0.31250000  0.50000000  1
  Ti  Ti2649  1  0.62500000  0.31250000  0.56250000  1
  V  V2650  1  0.62500000  0.31250000  0.62500000  1
  Ti  Ti2651  1  0.62500000  0.31250000  0.68750000  1
  V  V2652  1  0.62500000  0.31250000  0.75000000  1
  Ti  Ti2653  1  0.62500000  0.31250000  0.81250000  1
  V  V2654  1  0.62500000  0.31250000  0.87500000  1
  Ti  Ti2655  1  0.62500000  0.31250000  0.93750000  1
  Ti  Ti2656  1  0.62500000  0.37500000  0.00000000  1
  V  V2657  1  0.62500000  0.37500000  0.06250000  1
  Ti  Ti2658  1  0.62500000  0.37500000  0.12500000  1
  V  V2659  1  0.62500000  0.37500000  0.18750000  1
  Ti  Ti2660  1  0.62500000  0.37500000  0.25000000  1
  V  V2661  1  0.62500000  0.37500000  0.31250000  1
  Ti  Ti2662  1  0.62500000  0.37500000  0.37500000  1
  V  V2663  1  0.62500000  0.37500000  0.43750000  1
  Ti  Ti2664  1  0.62500000  0.37500000  0.50000000  1
  V  V2665  1  0.62500000  0.37500000  0.56250000  1
  Ti  Ti2666  1  0.62500000  0.37500000  0.62500000  1
  V  V2667  1  0.62500000  0.37500000  0.68750000  1
  Ti  Ti2668  1  0.62500000  0.37500000  0.75000000  1
  V  V2669  1  0.62500000  0.37500000  0.81250000  1
  Ti  Ti2670  1  0.62500000  0.37500000  0.87500000  1
  V  V2671  1  0.62500000  0.37500000  0.93750000  1
  V  V2672  1  0.62500000  0.43750000  0.00000000  1
  Ti  Ti2673  1  0.62500000  0.43750000  0.06250000  1
  V  V2674  1  0.62500000  0.43750000  0.12500000  1
  Ti  Ti2675  1  0.62500000  0.43750000  0.18750000  1
  V  V2676  1  0.62500000  0.43750000  0.25000000  1
  Ti  Ti2677  1  0.62500000  0.43750000  0.31250000  1
  V  V2678  1  0.62500000  0.43750000  0.37500000  1
  Ti  Ti2679  1  0.62500000  0.43750000  0.43750000  1
  V  V2680  1  0.62500000  0.43750000  0.50000000  1
  Ti  Ti2681  1  0.62500000  0.43750000  0.56250000  1
  V  V2682  1  0.62500000  0.43750000  0.62500000  1
  Ti  Ti2683  1  0.62500000  0.43750000  0.68750000  1
  V  V2684  1  0.62500000  0.43750000  0.75000000  1
  Ti  Ti2685  1  0.62500000  0.43750000  0.81250000  1
  V  V2686  1  0.62500000  0.43750000  0.87500000  1
  Ti  Ti2687  1  0.62500000  0.43750000  0.93750000  1
  Ti  Ti2688  1  0.62500000  0.50000000  0.00000000  1
  V  V2689  1  0.62500000  0.50000000  0.06250000  1
  Ti  Ti2690  1  0.62500000  0.50000000  0.12500000  1
  V  V2691  1  0.62500000  0.50000000  0.18750000  1
  Ti  Ti2692  1  0.62500000  0.50000000  0.25000000  1
  V  V2693  1  0.62500000  0.50000000  0.31250000  1
  Ti  Ti2694  1  0.62500000  0.50000000  0.37500000  1
  V  V2695  1  0.62500000  0.50000000  0.43750000  1
  Ti  Ti2696  1  0.62500000  0.50000000  0.50000000  1
  V  V2697  1  0.62500000  0.50000000  0.56250000  1
  Ti  Ti2698  1  0.62500000  0.50000000  0.62500000  1
  V  V2699  1  0.62500000  0.50000000  0.68750000  1
  Ti  Ti2700  1  0.62500000  0.50000000  0.75000000  1
  V  V2701  1  0.62500000  0.50000000  0.81250000  1
  Ti  Ti2702  1  0.62500000  0.50000000  0.87500000  1
  V  V2703  1  0.62500000  0.50000000  0.93750000  1
  V  V2704  1  0.62500000  0.56250000  0.00000000  1
  Ti  Ti2705  1  0.62500000  0.56250000  0.06250000  1
  V  V2706  1  0.62500000  0.56250000  0.12500000  1
  Ti  Ti2707  1  0.62500000  0.56250000  0.18750000  1
  V  V2708  1  0.62500000  0.56250000  0.25000000  1
  Ti  Ti2709  1  0.62500000  0.56250000  0.31250000  1
  V  V2710  1  0.62500000  0.56250000  0.37500000  1
  Ti  Ti2711  1  0.62500000  0.56250000  0.43750000  1
  V  V2712  1  0.62500000  0.56250000  0.50000000  1
  Ti  Ti2713  1  0.62500000  0.56250000  0.56250000  1
  V  V2714  1  0.62500000  0.56250000  0.62500000  1
  Ti  Ti2715  1  0.62500000  0.56250000  0.68750000  1
  V  V2716  1  0.62500000  0.56250000  0.75000000  1
  Ti  Ti2717  1  0.62500000  0.56250000  0.81250000  1
  V  V2718  1  0.62500000  0.56250000  0.87500000  1
  Ti  Ti2719  1  0.62500000  0.56250000  0.93750000  1
  Ti  Ti2720  1  0.62500000  0.62500000  0.00000000  1
  V  V2721  1  0.62500000  0.62500000  0.06250000  1
  Ti  Ti2722  1  0.62500000  0.62500000  0.12500000  1
  V  V2723  1  0.62500000  0.62500000  0.18750000  1
  Ti  Ti2724  1  0.62500000  0.62500000  0.25000000  1
  V  V2725  1  0.62500000  0.62500000  0.31250000  1
  Ti  Ti2726  1  0.62500000  0.62500000  0.37500000  1
  V  V2727  1  0.62500000  0.62500000  0.43750000  1
  Ti  Ti2728  1  0.62500000  0.62500000  0.50000000  1
  V  V2729  1  0.62500000  0.62500000  0.56250000  1
  Ti  Ti2730  1  0.62500000  0.62500000  0.62500000  1
  V  V2731  1  0.62500000  0.62500000  0.68750000  1
  Ti  Ti2732  1  0.62500000  0.62500000  0.75000000  1
  V  V2733  1  0.62500000  0.62500000  0.81250000  1
  Ti  Ti2734  1  0.62500000  0.62500000  0.87500000  1
  V  V2735  1  0.62500000  0.62500000  0.93750000  1
  V  V2736  1  0.62500000  0.68750000  0.00000000  1
  Ti  Ti2737  1  0.62500000  0.68750000  0.06250000  1
  V  V2738  1  0.62500000  0.68750000  0.12500000  1
  Ti  Ti2739  1  0.62500000  0.68750000  0.18750000  1
  V  V2740  1  0.62500000  0.68750000  0.25000000  1
  Ti  Ti2741  1  0.62500000  0.68750000  0.31250000  1
  V  V2742  1  0.62500000  0.68750000  0.37500000  1
  Ti  Ti2743  1  0.62500000  0.68750000  0.43750000  1
  V  V2744  1  0.62500000  0.68750000  0.50000000  1
  Ti  Ti2745  1  0.62500000  0.68750000  0.56250000  1
  V  V2746  1  0.62500000  0.68750000  0.62500000  1
  Ti  Ti2747  1  0.62500000  0.68750000  0.68750000  1
  V  V2748  1  0.62500000  0.68750000  0.75000000  1
  Ti  Ti2749  1  0.62500000  0.68750000  0.81250000  1
  V  V2750  1  0.62500000  0.68750000  0.87500000  1
  Ti  Ti2751  1  0.62500000  0.68750000  0.93750000  1
  Ti  Ti2752  1  0.62500000  0.75000000  0.00000000  1
  V  V2753  1  0.62500000  0.75000000  0.06250000  1
  Ti  Ti2754  1  0.62500000  0.75000000  0.12500000  1
  V  V2755  1  0.62500000  0.75000000  0.18750000  1
  Ti  Ti2756  1  0.62500000  0.75000000  0.25000000  1
  V  V2757  1  0.62500000  0.75000000  0.31250000  1
  Ti  Ti2758  1  0.62500000  0.75000000  0.37500000  1
  V  V2759  1  0.62500000  0.75000000  0.43750000  1
  Ti  Ti2760  1  0.62500000  0.75000000  0.50000000  1
  V  V2761  1  0.62500000  0.75000000  0.56250000  1
  Ti  Ti2762  1  0.62500000  0.75000000  0.62500000  1
  V  V2763  1  0.62500000  0.75000000  0.68750000  1
  Ti  Ti2764  1  0.62500000  0.75000000  0.75000000  1
  V  V2765  1  0.62500000  0.75000000  0.81250000  1
  Ti  Ti2766  1  0.62500000  0.75000000  0.87500000  1
  V  V2767  1  0.62500000  0.75000000  0.93750000  1
  V  V2768  1  0.62500000  0.81250000  0.00000000  1
  Ti  Ti2769  1  0.62500000  0.81250000  0.06250000  1
  V  V2770  1  0.62500000  0.81250000  0.12500000  1
  Ti  Ti2771  1  0.62500000  0.81250000  0.18750000  1
  V  V2772  1  0.62500000  0.81250000  0.25000000  1
  Ti  Ti2773  1  0.62500000  0.81250000  0.31250000  1
  V  V2774  1  0.62500000  0.81250000  0.37500000  1
  Ti  Ti2775  1  0.62500000  0.81250000  0.43750000  1
  V  V2776  1  0.62500000  0.81250000  0.50000000  1
  Ti  Ti2777  1  0.62500000  0.81250000  0.56250000  1
  V  V2778  1  0.62500000  0.81250000  0.62500000  1
  Ti  Ti2779  1  0.62500000  0.81250000  0.68750000  1
  V  V2780  1  0.62500000  0.81250000  0.75000000  1
  Ti  Ti2781  1  0.62500000  0.81250000  0.81250000  1
  V  V2782  1  0.62500000  0.81250000  0.87500000  1
  Ti  Ti2783  1  0.62500000  0.81250000  0.93750000  1
  Ti  Ti2784  1  0.62500000  0.87500000  0.00000000  1
  V  V2785  1  0.62500000  0.87500000  0.06250000  1
  Ti  Ti2786  1  0.62500000  0.87500000  0.12500000  1
  V  V2787  1  0.62500000  0.87500000  0.18750000  1
  Ti  Ti2788  1  0.62500000  0.87500000  0.25000000  1
  V  V2789  1  0.62500000  0.87500000  0.31250000  1
  Ti  Ti2790  1  0.62500000  0.87500000  0.37500000  1
  V  V2791  1  0.62500000  0.87500000  0.43750000  1
  Ti  Ti2792  1  0.62500000  0.87500000  0.50000000  1
  V  V2793  1  0.62500000  0.87500000  0.56250000  1
  Ti  Ti2794  1  0.62500000  0.87500000  0.62500000  1
  V  V2795  1  0.62500000  0.87500000  0.68750000  1
  Ti  Ti2796  1  0.62500000  0.87500000  0.75000000  1
  V  V2797  1  0.62500000  0.87500000  0.81250000  1
  Ti  Ti2798  1  0.62500000  0.87500000  0.87500000  1
  V  V2799  1  0.62500000  0.87500000  0.93750000  1
  V  V2800  1  0.62500000  0.93750000  0.00000000  1
  Ti  Ti2801  1  0.62500000  0.93750000  0.06250000  1
  V  V2802  1  0.62500000  0.93750000  0.12500000  1
  Ti  Ti2803  1  0.62500000  0.93750000  0.18750000  1
  V  V2804  1  0.62500000  0.93750000  0.25000000  1
  Ti  Ti2805  1  0.62500000  0.93750000  0.31250000  1
  V  V2806  1  0.62500000  0.93750000  0.37500000  1
  Ti  Ti2807  1  0.62500000  0.93750000  0.43750000  1
  V  V2808  1  0.62500000  0.93750000  0.50000000  1
  Ti  Ti2809  1  0.62500000  0.93750000  0.56250000  1
  V  V2810  1  0.62500000  0.93750000  0.62500000  1
  Ti  Ti2811  1  0.62500000  0.93750000  0.68750000  1
  V  V2812  1  0.62500000  0.93750000  0.75000000  1
  Ti  Ti2813  1  0.62500000  0.93750000  0.81250000  1
  V  V2814  1  0.62500000  0.93750000  0.87500000  1
  Ti  Ti2815  1  0.62500000  0.93750000  0.93750000  1
  V  V2816  1  0.68750000  0.00000000  0.00000000  1
  Ti  Ti2817  1  0.68750000  0.00000000  0.06250000  1
  V  V2818  1  0.68750000  0.00000000  0.12500000  1
  Ti  Ti2819  1  0.68750000  0.00000000  0.18750000  1
  V  V2820  1  0.68750000  0.00000000  0.25000000  1
  Ti  Ti2821  1  0.68750000  0.00000000  0.31250000  1
  V  V2822  1  0.68750000  0.00000000  0.37500000  1
  Ti  Ti2823  1  0.68750000  0.00000000  0.43750000  1
  V  V2824  1  0.68750000  0.00000000  0.50000000  1
  Ti  Ti2825  1  0.68750000  0.00000000  0.56250000  1
  V  V2826  1  0.68750000  0.00000000  0.62500000  1
  Ti  Ti2827  1  0.68750000  0.00000000  0.68750000  1
  V  V2828  1  0.68750000  0.00000000  0.75000000  1
  Ti  Ti2829  1  0.68750000  0.00000000  0.81250000  1
  V  V2830  1  0.68750000  0.00000000  0.87500000  1
  Ti  Ti2831  1  0.68750000  0.00000000  0.93750000  1
  Ti  Ti2832  1  0.68750000  0.06250000  0.00000000  1
  V  V2833  1  0.68750000  0.06250000  0.06250000  1
  Ti  Ti2834  1  0.68750000  0.06250000  0.12500000  1
  V  V2835  1  0.68750000  0.06250000  0.18750000  1
  Ti  Ti2836  1  0.68750000  0.06250000  0.25000000  1
  V  V2837  1  0.68750000  0.06250000  0.31250000  1
  Ti  Ti2838  1  0.68750000  0.06250000  0.37500000  1
  V  V2839  1  0.68750000  0.06250000  0.43750000  1
  Ti  Ti2840  1  0.68750000  0.06250000  0.50000000  1
  V  V2841  1  0.68750000  0.06250000  0.56250000  1
  Ti  Ti2842  1  0.68750000  0.06250000  0.62500000  1
  V  V2843  1  0.68750000  0.06250000  0.68750000  1
  Ti  Ti2844  1  0.68750000  0.06250000  0.75000000  1
  V  V2845  1  0.68750000  0.06250000  0.81250000  1
  Ti  Ti2846  1  0.68750000  0.06250000  0.87500000  1
  V  V2847  1  0.68750000  0.06250000  0.93750000  1
  V  V2848  1  0.68750000  0.12500000  0.00000000  1
  Ti  Ti2849  1  0.68750000  0.12500000  0.06250000  1
  V  V2850  1  0.68750000  0.12500000  0.12500000  1
  Ti  Ti2851  1  0.68750000  0.12500000  0.18750000  1
  V  V2852  1  0.68750000  0.12500000  0.25000000  1
  Ti  Ti2853  1  0.68750000  0.12500000  0.31250000  1
  V  V2854  1  0.68750000  0.12500000  0.37500000  1
  Ti  Ti2855  1  0.68750000  0.12500000  0.43750000  1
  V  V2856  1  0.68750000  0.12500000  0.50000000  1
  Ti  Ti2857  1  0.68750000  0.12500000  0.56250000  1
  V  V2858  1  0.68750000  0.12500000  0.62500000  1
  Ti  Ti2859  1  0.68750000  0.12500000  0.68750000  1
  V  V2860  1  0.68750000  0.12500000  0.75000000  1
  Ti  Ti2861  1  0.68750000  0.12500000  0.81250000  1
  V  V2862  1  0.68750000  0.12500000  0.87500000  1
  Ti  Ti2863  1  0.68750000  0.12500000  0.93750000  1
  Ti  Ti2864  1  0.68750000  0.18750000  0.00000000  1
  V  V2865  1  0.68750000  0.18750000  0.06250000  1
  Ti  Ti2866  1  0.68750000  0.18750000  0.12500000  1
  V  V2867  1  0.68750000  0.18750000  0.18750000  1
  Ti  Ti2868  1  0.68750000  0.18750000  0.25000000  1
  V  V2869  1  0.68750000  0.18750000  0.31250000  1
  Ti  Ti2870  1  0.68750000  0.18750000  0.37500000  1
  V  V2871  1  0.68750000  0.18750000  0.43750000  1
  Ti  Ti2872  1  0.68750000  0.18750000  0.50000000  1
  V  V2873  1  0.68750000  0.18750000  0.56250000  1
  Ti  Ti2874  1  0.68750000  0.18750000  0.62500000  1
  V  V2875  1  0.68750000  0.18750000  0.68750000  1
  Ti  Ti2876  1  0.68750000  0.18750000  0.75000000  1
  V  V2877  1  0.68750000  0.18750000  0.81250000  1
  Ti  Ti2878  1  0.68750000  0.18750000  0.87500000  1
  V  V2879  1  0.68750000  0.18750000  0.93750000  1
  V  V2880  1  0.68750000  0.25000000  0.00000000  1
  Ti  Ti2881  1  0.68750000  0.25000000  0.06250000  1
  V  V2882  1  0.68750000  0.25000000  0.12500000  1
  Ti  Ti2883  1  0.68750000  0.25000000  0.18750000  1
  V  V2884  1  0.68750000  0.25000000  0.25000000  1
  Ti  Ti2885  1  0.68750000  0.25000000  0.31250000  1
  V  V2886  1  0.68750000  0.25000000  0.37500000  1
  Ti  Ti2887  1  0.68750000  0.25000000  0.43750000  1
  V  V2888  1  0.68750000  0.25000000  0.50000000  1
  Ti  Ti2889  1  0.68750000  0.25000000  0.56250000  1
  V  V2890  1  0.68750000  0.25000000  0.62500000  1
  Ti  Ti2891  1  0.68750000  0.25000000  0.68750000  1
  V  V2892  1  0.68750000  0.25000000  0.75000000  1
  Ti  Ti2893  1  0.68750000  0.25000000  0.81250000  1
  V  V2894  1  0.68750000  0.25000000  0.87500000  1
  Ti  Ti2895  1  0.68750000  0.25000000  0.93750000  1
  Ti  Ti2896  1  0.68750000  0.31250000  0.00000000  1
  V  V2897  1  0.68750000  0.31250000  0.06250000  1
  Ti  Ti2898  1  0.68750000  0.31250000  0.12500000  1
  V  V2899  1  0.68750000  0.31250000  0.18750000  1
  Ti  Ti2900  1  0.68750000  0.31250000  0.25000000  1
  V  V2901  1  0.68750000  0.31250000  0.31250000  1
  Ti  Ti2902  1  0.68750000  0.31250000  0.37500000  1
  V  V2903  1  0.68750000  0.31250000  0.43750000  1
  Ti  Ti2904  1  0.68750000  0.31250000  0.50000000  1
  V  V2905  1  0.68750000  0.31250000  0.56250000  1
  Ti  Ti2906  1  0.68750000  0.31250000  0.62500000  1
  V  V2907  1  0.68750000  0.31250000  0.68750000  1
  Ti  Ti2908  1  0.68750000  0.31250000  0.75000000  1
  V  V2909  1  0.68750000  0.31250000  0.81250000  1
  Ti  Ti2910  1  0.68750000  0.31250000  0.87500000  1
  V  V2911  1  0.68750000  0.31250000  0.93750000  1
  V  V2912  1  0.68750000  0.37500000  0.00000000  1
  Ti  Ti2913  1  0.68750000  0.37500000  0.06250000  1
  V  V2914  1  0.68750000  0.37500000  0.12500000  1
  Ti  Ti2915  1  0.68750000  0.37500000  0.18750000  1
  V  V2916  1  0.68750000  0.37500000  0.25000000  1
  Ti  Ti2917  1  0.68750000  0.37500000  0.31250000  1
  V  V2918  1  0.68750000  0.37500000  0.37500000  1
  Ti  Ti2919  1  0.68750000  0.37500000  0.43750000  1
  V  V2920  1  0.68750000  0.37500000  0.50000000  1
  Ti  Ti2921  1  0.68750000  0.37500000  0.56250000  1
  V  V2922  1  0.68750000  0.37500000  0.62500000  1
  Ti  Ti2923  1  0.68750000  0.37500000  0.68750000  1
  V  V2924  1  0.68750000  0.37500000  0.75000000  1
  Ti  Ti2925  1  0.68750000  0.37500000  0.81250000  1
  V  V2926  1  0.68750000  0.37500000  0.87500000  1
  Ti  Ti2927  1  0.68750000  0.37500000  0.93750000  1
  Ti  Ti2928  1  0.68750000  0.43750000  0.00000000  1
  V  V2929  1  0.68750000  0.43750000  0.06250000  1
  Ti  Ti2930  1  0.68750000  0.43750000  0.12500000  1
  V  V2931  1  0.68750000  0.43750000  0.18750000  1
  Ti  Ti2932  1  0.68750000  0.43750000  0.25000000  1
  V  V2933  1  0.68750000  0.43750000  0.31250000  1
  Ti  Ti2934  1  0.68750000  0.43750000  0.37500000  1
  V  V2935  1  0.68750000  0.43750000  0.43750000  1
  Ti  Ti2936  1  0.68750000  0.43750000  0.50000000  1
  V  V2937  1  0.68750000  0.43750000  0.56250000  1
  Ti  Ti2938  1  0.68750000  0.43750000  0.62500000  1
  V  V2939  1  0.68750000  0.43750000  0.68750000  1
  Ti  Ti2940  1  0.68750000  0.43750000  0.75000000  1
  V  V2941  1  0.68750000  0.43750000  0.81250000  1
  Ti  Ti2942  1  0.68750000  0.43750000  0.87500000  1
  V  V2943  1  0.68750000  0.43750000  0.93750000  1
  V  V2944  1  0.68750000  0.50000000  0.00000000  1
  Ti  Ti2945  1  0.68750000  0.50000000  0.06250000  1
  V  V2946  1  0.68750000  0.50000000  0.12500000  1
  Ti  Ti2947  1  0.68750000  0.50000000  0.18750000  1
  V  V2948  1  0.68750000  0.50000000  0.25000000  1
  Ti  Ti2949  1  0.68750000  0.50000000  0.31250000  1
  V  V2950  1  0.68750000  0.50000000  0.37500000  1
  Ti  Ti2951  1  0.68750000  0.50000000  0.43750000  1
  V  V2952  1  0.68750000  0.50000000  0.50000000  1
  Ti  Ti2953  1  0.68750000  0.50000000  0.56250000  1
  V  V2954  1  0.68750000  0.50000000  0.62500000  1
  Ti  Ti2955  1  0.68750000  0.50000000  0.68750000  1
  V  V2956  1  0.68750000  0.50000000  0.75000000  1
  Ti  Ti2957  1  0.68750000  0.50000000  0.81250000  1
  V  V2958  1  0.68750000  0.50000000  0.87500000  1
  Ti  Ti2959  1  0.68750000  0.50000000  0.93750000  1
  Ti  Ti2960  1  0.68750000  0.56250000  0.00000000  1
  V  V2961  1  0.68750000  0.56250000  0.06250000  1
  Ti  Ti2962  1  0.68750000  0.56250000  0.12500000  1
  V  V2963  1  0.68750000  0.56250000  0.18750000  1
  Ti  Ti2964  1  0.68750000  0.56250000  0.25000000  1
  V  V2965  1  0.68750000  0.56250000  0.31250000  1
  Ti  Ti2966  1  0.68750000  0.56250000  0.37500000  1
  V  V2967  1  0.68750000  0.56250000  0.43750000  1
  Ti  Ti2968  1  0.68750000  0.56250000  0.50000000  1
  V  V2969  1  0.68750000  0.56250000  0.56250000  1
  Ti  Ti2970  1  0.68750000  0.56250000  0.62500000  1
  V  V2971  1  0.68750000  0.56250000  0.68750000  1
  Ti  Ti2972  1  0.68750000  0.56250000  0.75000000  1
  V  V2973  1  0.68750000  0.56250000  0.81250000  1
  Ti  Ti2974  1  0.68750000  0.56250000  0.87500000  1
  V  V2975  1  0.68750000  0.56250000  0.93750000  1
  V  V2976  1  0.68750000  0.62500000  0.00000000  1
  Ti  Ti2977  1  0.68750000  0.62500000  0.06250000  1
  V  V2978  1  0.68750000  0.62500000  0.12500000  1
  Ti  Ti2979  1  0.68750000  0.62500000  0.18750000  1
  V  V2980  1  0.68750000  0.62500000  0.25000000  1
  Ti  Ti2981  1  0.68750000  0.62500000  0.31250000  1
  V  V2982  1  0.68750000  0.62500000  0.37500000  1
  Ti  Ti2983  1  0.68750000  0.62500000  0.43750000  1
  V  V2984  1  0.68750000  0.62500000  0.50000000  1
  Ti  Ti2985  1  0.68750000  0.62500000  0.56250000  1
  V  V2986  1  0.68750000  0.62500000  0.62500000  1
  Ti  Ti2987  1  0.68750000  0.62500000  0.68750000  1
  V  V2988  1  0.68750000  0.62500000  0.75000000  1
  Ti  Ti2989  1  0.68750000  0.62500000  0.81250000  1
  V  V2990  1  0.68750000  0.62500000  0.87500000  1
  Ti  Ti2991  1  0.68750000  0.62500000  0.93750000  1
  Ti  Ti2992  1  0.68750000  0.68750000  0.00000000  1
  V  V2993  1  0.68750000  0.68750000  0.06250000  1
  Ti  Ti2994  1  0.68750000  0.68750000  0.12500000  1
  V  V2995  1  0.68750000  0.68750000  0.18750000  1
  Ti  Ti2996  1  0.68750000  0.68750000  0.25000000  1
  V  V2997  1  0.68750000  0.68750000  0.31250000  1
  Ti  Ti2998  1  0.68750000  0.68750000  0.37500000  1
  V  V2999  1  0.68750000  0.68750000  0.43750000  1
  Ti  Ti3000  1  0.68750000  0.68750000  0.50000000  1
  V  V3001  1  0.68750000  0.68750000  0.56250000  1
  Ti  Ti3002  1  0.68750000  0.68750000  0.62500000  1
  V  V3003  1  0.68750000  0.68750000  0.68750000  1
  Ti  Ti3004  1  0.68750000  0.68750000  0.75000000  1
  V  V3005  1  0.68750000  0.68750000  0.81250000  1
  Ti  Ti3006  1  0.68750000  0.68750000  0.87500000  1
  V  V3007  1  0.68750000  0.68750000  0.93750000  1
  V  V3008  1  0.68750000  0.75000000  0.00000000  1
  Ti  Ti3009  1  0.68750000  0.75000000  0.06250000  1
  V  V3010  1  0.68750000  0.75000000  0.12500000  1
  Ti  Ti3011  1  0.68750000  0.75000000  0.18750000  1
  V  V3012  1  0.68750000  0.75000000  0.25000000  1
  Ti  Ti3013  1  0.68750000  0.75000000  0.31250000  1
  V  V3014  1  0.68750000  0.75000000  0.37500000  1
  Ti  Ti3015  1  0.68750000  0.75000000  0.43750000  1
  V  V3016  1  0.68750000  0.75000000  0.50000000  1
  Ti  Ti3017  1  0.68750000  0.75000000  0.56250000  1
  V  V3018  1  0.68750000  0.75000000  0.62500000  1
  Ti  Ti3019  1  0.68750000  0.75000000  0.68750000  1
  V  V3020  1  0.68750000  0.75000000  0.75000000  1
  Ti  Ti3021  1  0.68750000  0.75000000  0.81250000  1
  V  V3022  1  0.68750000  0.75000000  0.87500000  1
  Ti  Ti3023  1  0.68750000  0.75000000  0.93750000  1
  Ti  Ti3024  1  0.68750000  0.81250000  0.00000000  1
  V  V3025  1  0.68750000  0.81250000  0.06250000  1
  Ti  Ti3026  1  0.68750000  0.81250000  0.12500000  1
  V  V3027  1  0.68750000  0.81250000  0.18750000  1
  Ti  Ti3028  1  0.68750000  0.81250000  0.25000000  1
  V  V3029  1  0.68750000  0.81250000  0.31250000  1
  Ti  Ti3030  1  0.68750000  0.81250000  0.37500000  1
  V  V3031  1  0.68750000  0.81250000  0.43750000  1
  Ti  Ti3032  1  0.68750000  0.81250000  0.50000000  1
  V  V3033  1  0.68750000  0.81250000  0.56250000  1
  Ti  Ti3034  1  0.68750000  0.81250000  0.62500000  1
  V  V3035  1  0.68750000  0.81250000  0.68750000  1
  Ti  Ti3036  1  0.68750000  0.81250000  0.75000000  1
  V  V3037  1  0.68750000  0.81250000  0.81250000  1
  Ti  Ti3038  1  0.68750000  0.81250000  0.87500000  1
  V  V3039  1  0.68750000  0.81250000  0.93750000  1
  V  V3040  1  0.68750000  0.87500000  0.00000000  1
  Ti  Ti3041  1  0.68750000  0.87500000  0.06250000  1
  V  V3042  1  0.68750000  0.87500000  0.12500000  1
  Ti  Ti3043  1  0.68750000  0.87500000  0.18750000  1
  V  V3044  1  0.68750000  0.87500000  0.25000000  1
  Ti  Ti3045  1  0.68750000  0.87500000  0.31250000  1
  V  V3046  1  0.68750000  0.87500000  0.37500000  1
  Ti  Ti3047  1  0.68750000  0.87500000  0.43750000  1
  V  V3048  1  0.68750000  0.87500000  0.50000000  1
  Ti  Ti3049  1  0.68750000  0.87500000  0.56250000  1
  V  V3050  1  0.68750000  0.87500000  0.62500000  1
  Ti  Ti3051  1  0.68750000  0.87500000  0.68750000  1
  V  V3052  1  0.68750000  0.87500000  0.75000000  1
  Ti  Ti3053  1  0.68750000  0.87500000  0.81250000  1
  V  V3054  1  0.68750000  0.87500000  0.87500000  1
  Ti  Ti3055  1  0.68750000  0.87500000  0.93750000  1
  Ti  Ti3056  1  0.68750000  0.93750000  0.00000000  1
  V  V3057  1  0.68750000  0.93750000  0.06250000  1
  Ti  Ti3058  1  0.68750000  0.93750000  0.12500000  1
  V  V3059  1  0.68750000  0.93750000  0.18750000  1
  Ti  Ti3060  1  0.68750000  0.93750000  0.25000000  1
  V  V3061  1  0.68750000  0.93750000  0.31250000  1
  Ti  Ti3062  1  0.68750000  0.93750000  0.37500000  1
  V  V3063  1  0.68750000  0.93750000  0.43750000  1
  Ti  Ti3064  1  0.68750000  0.93750000  0.50000000  1
  V  V3065  1  0.68750000  0.93750000  0.56250000  1
  Ti  Ti3066  1  0.68750000  0.93750000  0.62500000  1
  V  V3067  1  0.68750000  0.93750000  0.68750000  1
  Ti  Ti3068  1  0.68750000  0.93750000  0.75000000  1
  V  V3069  1  0.68750000  0.93750000  0.81250000  1
  Ti  Ti3070  1  0.68750000  0.93750000  0.87500000  1
  V  V3071  1  0.68750000  0.93750000  0.93750000  1
  Ti  Ti3072  1  0.75000000  0.00000000  0.00000000  1
  V  V3073  1  0.75000000  0.00000000  0.06250000  1
  Ti  Ti3074  1  0.75000000  0.00000000  0.12500000  1
  V  V3075  1  0.75000000  0.00000000  0.18750000  1
  Ti  Ti3076  1  0.75000000  0.00000000  0.25000000  1
  V  V3077  1  0.75000000  0.00000000  0.31250000  1
  Ti  Ti3078  1  0.75000000  0.00000000  0.37500000  1
  V  V3079  1  0.75000000  0.00000000  0.43750000  1
  Ti  Ti3080  1  0.75000000  0.00000000  0.50000000  1
  V  V3081  1  0.75000000  0.00000000  0.56250000  1
  Ti  Ti3082  1  0.75000000  0.00000000  0.62500000  1
  V  V3083  1  0.75000000  0.00000000  0.68750000  1
  Ti  Ti3084  1  0.75000000  0.00000000  0.75000000  1
  V  V3085  1  0.75000000  0.00000000  0.81250000  1
  Ti  Ti3086  1  0.75000000  0.00000000  0.87500000  1
  V  V3087  1  0.75000000  0.00000000  0.93750000  1
  V  V3088  1  0.75000000  0.06250000  0.00000000  1
  Ti  Ti3089  1  0.75000000  0.06250000  0.06250000  1
  V  V3090  1  0.75000000  0.06250000  0.12500000  1
  Ti  Ti3091  1  0.75000000  0.06250000  0.18750000  1
  V  V3092  1  0.75000000  0.06250000  0.25000000  1
  Ti  Ti3093  1  0.75000000  0.06250000  0.31250000  1
  V  V3094  1  0.75000000  0.06250000  0.37500000  1
  Ti  Ti3095  1  0.75000000  0.06250000  0.43750000  1
  V  V3096  1  0.75000000  0.06250000  0.50000000  1
  Ti  Ti3097  1  0.75000000  0.06250000  0.56250000  1
  V  V3098  1  0.75000000  0.06250000  0.62500000  1
  Ti  Ti3099  1  0.75000000  0.06250000  0.68750000  1
  V  V3100  1  0.75000000  0.06250000  0.75000000  1
  Ti  Ti3101  1  0.75000000  0.06250000  0.81250000  1
  V  V3102  1  0.75000000  0.06250000  0.87500000  1
  Ti  Ti3103  1  0.75000000  0.06250000  0.93750000  1
  Ti  Ti3104  1  0.75000000  0.12500000  0.00000000  1
  V  V3105  1  0.75000000  0.12500000  0.06250000  1
  Ti  Ti3106  1  0.75000000  0.12500000  0.12500000  1
  V  V3107  1  0.75000000  0.12500000  0.18750000  1
  Ti  Ti3108  1  0.75000000  0.12500000  0.25000000  1
  V  V3109  1  0.75000000  0.12500000  0.31250000  1
  Ti  Ti3110  1  0.75000000  0.12500000  0.37500000  1
  V  V3111  1  0.75000000  0.12500000  0.43750000  1
  Ti  Ti3112  1  0.75000000  0.12500000  0.50000000  1
  V  V3113  1  0.75000000  0.12500000  0.56250000  1
  Ti  Ti3114  1  0.75000000  0.12500000  0.62500000  1
  V  V3115  1  0.75000000  0.12500000  0.68750000  1
  Ti  Ti3116  1  0.75000000  0.12500000  0.75000000  1
  V  V3117  1  0.75000000  0.12500000  0.81250000  1
  Ti  Ti3118  1  0.75000000  0.12500000  0.87500000  1
  V  V3119  1  0.75000000  0.12500000  0.93750000  1
  V  V3120  1  0.75000000  0.18750000  0.00000000  1
  Ti  Ti3121  1  0.75000000  0.18750000  0.06250000  1
  V  V3122  1  0.75000000  0.18750000  0.12500000  1
  Ti  Ti3123  1  0.75000000  0.18750000  0.18750000  1
  V  V3124  1  0.75000000  0.18750000  0.25000000  1
  Ti  Ti3125  1  0.75000000  0.18750000  0.31250000  1
  V  V3126  1  0.75000000  0.18750000  0.37500000  1
  Ti  Ti3127  1  0.75000000  0.18750000  0.43750000  1
  V  V3128  1  0.75000000  0.18750000  0.50000000  1
  Ti  Ti3129  1  0.75000000  0.18750000  0.56250000  1
  V  V3130  1  0.75000000  0.18750000  0.62500000  1
  Ti  Ti3131  1  0.75000000  0.18750000  0.68750000  1
  V  V3132  1  0.75000000  0.18750000  0.75000000  1
  Ti  Ti3133  1  0.75000000  0.18750000  0.81250000  1
  V  V3134  1  0.75000000  0.18750000  0.87500000  1
  Ti  Ti3135  1  0.75000000  0.18750000  0.93750000  1
  Ti  Ti3136  1  0.75000000  0.25000000  0.00000000  1
  V  V3137  1  0.75000000  0.25000000  0.06250000  1
  Ti  Ti3138  1  0.75000000  0.25000000  0.12500000  1
  V  V3139  1  0.75000000  0.25000000  0.18750000  1
  Ti  Ti3140  1  0.75000000  0.25000000  0.25000000  1
  V  V3141  1  0.75000000  0.25000000  0.31250000  1
  Ti  Ti3142  1  0.75000000  0.25000000  0.37500000  1
  V  V3143  1  0.75000000  0.25000000  0.43750000  1
  Ti  Ti3144  1  0.75000000  0.25000000  0.50000000  1
  V  V3145  1  0.75000000  0.25000000  0.56250000  1
  Ti  Ti3146  1  0.75000000  0.25000000  0.62500000  1
  V  V3147  1  0.75000000  0.25000000  0.68750000  1
  Ti  Ti3148  1  0.75000000  0.25000000  0.75000000  1
  V  V3149  1  0.75000000  0.25000000  0.81250000  1
  Ti  Ti3150  1  0.75000000  0.25000000  0.87500000  1
  V  V3151  1  0.75000000  0.25000000  0.93750000  1
  V  V3152  1  0.75000000  0.31250000  0.00000000  1
  Ti  Ti3153  1  0.75000000  0.31250000  0.06250000  1
  V  V3154  1  0.75000000  0.31250000  0.12500000  1
  Ti  Ti3155  1  0.75000000  0.31250000  0.18750000  1
  V  V3156  1  0.75000000  0.31250000  0.25000000  1
  Ti  Ti3157  1  0.75000000  0.31250000  0.31250000  1
  V  V3158  1  0.75000000  0.31250000  0.37500000  1
  Ti  Ti3159  1  0.75000000  0.31250000  0.43750000  1
  V  V3160  1  0.75000000  0.31250000  0.50000000  1
  Ti  Ti3161  1  0.75000000  0.31250000  0.56250000  1
  V  V3162  1  0.75000000  0.31250000  0.62500000  1
  Ti  Ti3163  1  0.75000000  0.31250000  0.68750000  1
  V  V3164  1  0.75000000  0.31250000  0.75000000  1
  Ti  Ti3165  1  0.75000000  0.31250000  0.81250000  1
  V  V3166  1  0.75000000  0.31250000  0.87500000  1
  Ti  Ti3167  1  0.75000000  0.31250000  0.93750000  1
  Ti  Ti3168  1  0.75000000  0.37500000  0.00000000  1
  V  V3169  1  0.75000000  0.37500000  0.06250000  1
  Ti  Ti3170  1  0.75000000  0.37500000  0.12500000  1
  V  V3171  1  0.75000000  0.37500000  0.18750000  1
  Ti  Ti3172  1  0.75000000  0.37500000  0.25000000  1
  V  V3173  1  0.75000000  0.37500000  0.31250000  1
  Ti  Ti3174  1  0.75000000  0.37500000  0.37500000  1
  V  V3175  1  0.75000000  0.37500000  0.43750000  1
  Ti  Ti3176  1  0.75000000  0.37500000  0.50000000  1
  V  V3177  1  0.75000000  0.37500000  0.56250000  1
  Ti  Ti3178  1  0.75000000  0.37500000  0.62500000  1
  V  V3179  1  0.75000000  0.37500000  0.68750000  1
  Ti  Ti3180  1  0.75000000  0.37500000  0.75000000  1
  V  V3181  1  0.75000000  0.37500000  0.81250000  1
  Ti  Ti3182  1  0.75000000  0.37500000  0.87500000  1
  V  V3183  1  0.75000000  0.37500000  0.93750000  1
  V  V3184  1  0.75000000  0.43750000  0.00000000  1
  Ti  Ti3185  1  0.75000000  0.43750000  0.06250000  1
  V  V3186  1  0.75000000  0.43750000  0.12500000  1
  Ti  Ti3187  1  0.75000000  0.43750000  0.18750000  1
  V  V3188  1  0.75000000  0.43750000  0.25000000  1
  Ti  Ti3189  1  0.75000000  0.43750000  0.31250000  1
  V  V3190  1  0.75000000  0.43750000  0.37500000  1
  Ti  Ti3191  1  0.75000000  0.43750000  0.43750000  1
  V  V3192  1  0.75000000  0.43750000  0.50000000  1
  Ti  Ti3193  1  0.75000000  0.43750000  0.56250000  1
  V  V3194  1  0.75000000  0.43750000  0.62500000  1
  Ti  Ti3195  1  0.75000000  0.43750000  0.68750000  1
  V  V3196  1  0.75000000  0.43750000  0.75000000  1
  Ti  Ti3197  1  0.75000000  0.43750000  0.81250000  1
  V  V3198  1  0.75000000  0.43750000  0.87500000  1
  Ti  Ti3199  1  0.75000000  0.43750000  0.93750000  1
  Ti  Ti3200  1  0.75000000  0.50000000  0.00000000  1
  V  V3201  1  0.75000000  0.50000000  0.06250000  1
  Ti  Ti3202  1  0.75000000  0.50000000  0.12500000  1
  V  V3203  1  0.75000000  0.50000000  0.18750000  1
  Ti  Ti3204  1  0.75000000  0.50000000  0.25000000  1
  V  V3205  1  0.75000000  0.50000000  0.31250000  1
  Ti  Ti3206  1  0.75000000  0.50000000  0.37500000  1
  V  V3207  1  0.75000000  0.50000000  0.43750000  1
  Ti  Ti3208  1  0.75000000  0.50000000  0.50000000  1
  V  V3209  1  0.75000000  0.50000000  0.56250000  1
  Ti  Ti3210  1  0.75000000  0.50000000  0.62500000  1
  V  V3211  1  0.75000000  0.50000000  0.68750000  1
  Ti  Ti3212  1  0.75000000  0.50000000  0.75000000  1
  V  V3213  1  0.75000000  0.50000000  0.81250000  1
  Ti  Ti3214  1  0.75000000  0.50000000  0.87500000  1
  V  V3215  1  0.75000000  0.50000000  0.93750000  1
  V  V3216  1  0.75000000  0.56250000  0.00000000  1
  Ti  Ti3217  1  0.75000000  0.56250000  0.06250000  1
  V  V3218  1  0.75000000  0.56250000  0.12500000  1
  Ti  Ti3219  1  0.75000000  0.56250000  0.18750000  1
  V  V3220  1  0.75000000  0.56250000  0.25000000  1
  Ti  Ti3221  1  0.75000000  0.56250000  0.31250000  1
  V  V3222  1  0.75000000  0.56250000  0.37500000  1
  Ti  Ti3223  1  0.75000000  0.56250000  0.43750000  1
  V  V3224  1  0.75000000  0.56250000  0.50000000  1
  Ti  Ti3225  1  0.75000000  0.56250000  0.56250000  1
  V  V3226  1  0.75000000  0.56250000  0.62500000  1
  Ti  Ti3227  1  0.75000000  0.56250000  0.68750000  1
  V  V3228  1  0.75000000  0.56250000  0.75000000  1
  Ti  Ti3229  1  0.75000000  0.56250000  0.81250000  1
  V  V3230  1  0.75000000  0.56250000  0.87500000  1
  Ti  Ti3231  1  0.75000000  0.56250000  0.93750000  1
  Ti  Ti3232  1  0.75000000  0.62500000  0.00000000  1
  V  V3233  1  0.75000000  0.62500000  0.06250000  1
  Ti  Ti3234  1  0.75000000  0.62500000  0.12500000  1
  V  V3235  1  0.75000000  0.62500000  0.18750000  1
  Ti  Ti3236  1  0.75000000  0.62500000  0.25000000  1
  V  V3237  1  0.75000000  0.62500000  0.31250000  1
  Ti  Ti3238  1  0.75000000  0.62500000  0.37500000  1
  V  V3239  1  0.75000000  0.62500000  0.43750000  1
  Ti  Ti3240  1  0.75000000  0.62500000  0.50000000  1
  V  V3241  1  0.75000000  0.62500000  0.56250000  1
  Ti  Ti3242  1  0.75000000  0.62500000  0.62500000  1
  V  V3243  1  0.75000000  0.62500000  0.68750000  1
  Ti  Ti3244  1  0.75000000  0.62500000  0.75000000  1
  V  V3245  1  0.75000000  0.62500000  0.81250000  1
  Ti  Ti3246  1  0.75000000  0.62500000  0.87500000  1
  V  V3247  1  0.75000000  0.62500000  0.93750000  1
  V  V3248  1  0.75000000  0.68750000  0.00000000  1
  Ti  Ti3249  1  0.75000000  0.68750000  0.06250000  1
  V  V3250  1  0.75000000  0.68750000  0.12500000  1
  Ti  Ti3251  1  0.75000000  0.68750000  0.18750000  1
  V  V3252  1  0.75000000  0.68750000  0.25000000  1
  Ti  Ti3253  1  0.75000000  0.68750000  0.31250000  1
  V  V3254  1  0.75000000  0.68750000  0.37500000  1
  Ti  Ti3255  1  0.75000000  0.68750000  0.43750000  1
  V  V3256  1  0.75000000  0.68750000  0.50000000  1
  Ti  Ti3257  1  0.75000000  0.68750000  0.56250000  1
  V  V3258  1  0.75000000  0.68750000  0.62500000  1
  Ti  Ti3259  1  0.75000000  0.68750000  0.68750000  1
  V  V3260  1  0.75000000  0.68750000  0.75000000  1
  Ti  Ti3261  1  0.75000000  0.68750000  0.81250000  1
  V  V3262  1  0.75000000  0.68750000  0.87500000  1
  Ti  Ti3263  1  0.75000000  0.68750000  0.93750000  1
  Ti  Ti3264  1  0.75000000  0.75000000  0.00000000  1
  V  V3265  1  0.75000000  0.75000000  0.06250000  1
  Ti  Ti3266  1  0.75000000  0.75000000  0.12500000  1
  V  V3267  1  0.75000000  0.75000000  0.18750000  1
  Ti  Ti3268  1  0.75000000  0.75000000  0.25000000  1
  V  V3269  1  0.75000000  0.75000000  0.31250000  1
  Ti  Ti3270  1  0.75000000  0.75000000  0.37500000  1
  V  V3271  1  0.75000000  0.75000000  0.43750000  1
  Ti  Ti3272  1  0.75000000  0.75000000  0.50000000  1
  V  V3273  1  0.75000000  0.75000000  0.56250000  1
  Ti  Ti3274  1  0.75000000  0.75000000  0.62500000  1
  V  V3275  1  0.75000000  0.75000000  0.68750000  1
  Ti  Ti3276  1  0.75000000  0.75000000  0.75000000  1
  V  V3277  1  0.75000000  0.75000000  0.81250000  1
  Ti  Ti3278  1  0.75000000  0.75000000  0.87500000  1
  V  V3279  1  0.75000000  0.75000000  0.93750000  1
  V  V3280  1  0.75000000  0.81250000  0.00000000  1
  Ti  Ti3281  1  0.75000000  0.81250000  0.06250000  1
  V  V3282  1  0.75000000  0.81250000  0.12500000  1
  Ti  Ti3283  1  0.75000000  0.81250000  0.18750000  1
  V  V3284  1  0.75000000  0.81250000  0.25000000  1
  Ti  Ti3285  1  0.75000000  0.81250000  0.31250000  1
  V  V3286  1  0.75000000  0.81250000  0.37500000  1
  Ti  Ti3287  1  0.75000000  0.81250000  0.43750000  1
  V  V3288  1  0.75000000  0.81250000  0.50000000  1
  Ti  Ti3289  1  0.75000000  0.81250000  0.56250000  1
  V  V3290  1  0.75000000  0.81250000  0.62500000  1
  Ti  Ti3291  1  0.75000000  0.81250000  0.68750000  1
  V  V3292  1  0.75000000  0.81250000  0.75000000  1
  Ti  Ti3293  1  0.75000000  0.81250000  0.81250000  1
  V  V3294  1  0.75000000  0.81250000  0.87500000  1
  Ti  Ti3295  1  0.75000000  0.81250000  0.93750000  1
  Ti  Ti3296  1  0.75000000  0.87500000  0.00000000  1
  V  V3297  1  0.75000000  0.87500000  0.06250000  1
  Ti  Ti3298  1  0.75000000  0.87500000  0.12500000  1
  V  V3299  1  0.75000000  0.87500000  0.18750000  1
  Ti  Ti3300  1  0.75000000  0.87500000  0.25000000  1
  V  V3301  1  0.75000000  0.87500000  0.31250000  1
  Ti  Ti3302  1  0.75000000  0.87500000  0.37500000  1
  V  V3303  1  0.75000000  0.87500000  0.43750000  1
  Ti  Ti3304  1  0.75000000  0.87500000  0.50000000  1
  V  V3305  1  0.75000000  0.87500000  0.56250000  1
  Ti  Ti3306  1  0.75000000  0.87500000  0.62500000  1
  V  V3307  1  0.75000000  0.87500000  0.68750000  1
  Ti  Ti3308  1  0.75000000  0.87500000  0.75000000  1
  V  V3309  1  0.75000000  0.87500000  0.81250000  1
  Ti  Ti3310  1  0.75000000  0.87500000  0.87500000  1
  V  V3311  1  0.75000000  0.87500000  0.93750000  1
  V  V3312  1  0.75000000  0.93750000  0.00000000  1
  Ti  Ti3313  1  0.75000000  0.93750000  0.06250000  1
  V  V3314  1  0.75000000  0.93750000  0.12500000  1
  Ti  Ti3315  1  0.75000000  0.93750000  0.18750000  1
  V  V3316  1  0.75000000  0.93750000  0.25000000  1
  Ti  Ti3317  1  0.75000000  0.93750000  0.31250000  1
  V  V3318  1  0.75000000  0.93750000  0.37500000  1
  Ti  Ti3319  1  0.75000000  0.93750000  0.43750000  1
  V  V3320  1  0.75000000  0.93750000  0.50000000  1
  Ti  Ti3321  1  0.75000000  0.93750000  0.56250000  1
  V  V3322  1  0.75000000  0.93750000  0.62500000  1
  Ti  Ti3323  1  0.75000000  0.93750000  0.68750000  1
  V  V3324  1  0.75000000  0.93750000  0.75000000  1
  Ti  Ti3325  1  0.75000000  0.93750000  0.81250000  1
  V  V3326  1  0.75000000  0.93750000  0.87500000  1
  Ti  Ti3327  1  0.75000000  0.93750000  0.93750000  1
  V  V3328  1  0.81250000  0.00000000  0.00000000  1
  Ti  Ti3329  1  0.81250000  0.00000000  0.06250000  1
  V  V3330  1  0.81250000  0.00000000  0.12500000  1
  Ti  Ti3331  1  0.81250000  0.00000000  0.18750000  1
  V  V3332  1  0.81250000  0.00000000  0.25000000  1
  Ti  Ti3333  1  0.81250000  0.00000000  0.31250000  1
  V  V3334  1  0.81250000  0.00000000  0.37500000  1
  Ti  Ti3335  1  0.81250000  0.00000000  0.43750000  1
  V  V3336  1  0.81250000  0.00000000  0.50000000  1
  Ti  Ti3337  1  0.81250000  0.00000000  0.56250000  1
  V  V3338  1  0.81250000  0.00000000  0.62500000  1
  Ti  Ti3339  1  0.81250000  0.00000000  0.68750000  1
  V  V3340  1  0.81250000  0.00000000  0.75000000  1
  Ti  Ti3341  1  0.81250000  0.00000000  0.81250000  1
  V  V3342  1  0.81250000  0.00000000  0.87500000  1
  Ti  Ti3343  1  0.81250000  0.00000000  0.93750000  1
  Cr  Cr3344  1  0.81250000  0.06250000  0.00000000  1
  V  V3345  1  0.81250000  0.06250000  0.06250000  1
  Ti  Ti3346  1  0.81250000  0.06250000  0.12500000  1
  V  V3347  1  0.81250000  0.06250000  0.18750000  1
  Ti  Ti3348  1  0.81250000  0.06250000  0.25000000  1
  V  V3349  1  0.81250000  0.06250000  0.31250000  1
  Ti  Ti3350  1  0.81250000  0.06250000  0.37500000  1
  V  V3351  1  0.81250000  0.06250000  0.43750000  1
  Ti  Ti3352  1  0.81250000  0.06250000  0.50000000  1
  V  V3353  1  0.81250000  0.06250000  0.56250000  1
  Ti  Ti3354  1  0.81250000  0.06250000  0.62500000  1
  V  V3355  1  0.81250000  0.06250000  0.68750000  1
  Ti  Ti3356  1  0.81250000  0.06250000  0.75000000  1
  V  V3357  1  0.81250000  0.06250000  0.81250000  1
  Ti  Ti3358  1  0.81250000  0.06250000  0.87500000  1
  V  V3359  1  0.81250000  0.06250000  0.93750000  1
  V  V3360  1  0.81250000  0.12500000  0.00000000  1
  Cr  Cr3361  1  0.81250000  0.12500000  0.06250000  1
  V  V3362  1  0.81250000  0.12500000  0.12500000  1
  Cr  Cr3363  1  0.81250000  0.12500000  0.18750000  1
  V  V3364  1  0.81250000  0.12500000  0.25000000  1
  Ti  Ti3365  1  0.81250000  0.12500000  0.31250000  1
  V  V3366  1  0.81250000  0.12500000  0.37500000  1
  Ti  Ti3367  1  0.81250000  0.12500000  0.43750000  1
  V  V3368  1  0.81250000  0.12500000  0.50000000  1
  Ti  Ti3369  1  0.81250000  0.12500000  0.56250000  1
  V  V3370  1  0.81250000  0.12500000  0.62500000  1
  Ti  Ti3371  1  0.81250000  0.12500000  0.68750000  1
  V  V3372  1  0.81250000  0.12500000  0.75000000  1
  Cr  Cr3373  1  0.81250000  0.12500000  0.81250000  1
  V  V3374  1  0.81250000  0.12500000  0.87500000  1
  Ti  Ti3375  1  0.81250000  0.12500000  0.93750000  1
  Cr  Cr3376  1  0.81250000  0.18750000  0.00000000  1
  V  V3377  1  0.81250000  0.18750000  0.06250000  1
  Cr  Cr3378  1  0.81250000  0.18750000  0.12500000  1
  V  V3379  1  0.81250000  0.18750000  0.18750000  1
  Cr  Cr3380  1  0.81250000  0.18750000  0.25000000  1
  V  V3381  1  0.81250000  0.18750000  0.31250000  1
  Ti  Ti3382  1  0.81250000  0.18750000  0.37500000  1
  V  V3383  1  0.81250000  0.18750000  0.43750000  1
  Ti  Ti3384  1  0.81250000  0.18750000  0.50000000  1
  V  V3385  1  0.81250000  0.18750000  0.56250000  1
  Ti  Ti3386  1  0.81250000  0.18750000  0.62500000  1
  V  V3387  1  0.81250000  0.18750000  0.68750000  1
  Ti  Ti3388  1  0.81250000  0.18750000  0.75000000  1
  V  V3389  1  0.81250000  0.18750000  0.81250000  1
  Cr  Cr3390  1  0.81250000  0.18750000  0.87500000  1
  V  V3391  1  0.81250000  0.18750000  0.93750000  1
  V  V3392  1  0.81250000  0.25000000  0.00000000  1
  Cr  Cr3393  1  0.81250000  0.25000000  0.06250000  1
  V  V3394  1  0.81250000  0.25000000  0.12500000  1
  Cr  Cr3395  1  0.81250000  0.25000000  0.18750000  1
  V  V3396  1  0.81250000  0.25000000  0.25000000  1
  Ti  Ti3397  1  0.81250000  0.25000000  0.31250000  1
  V  V3398  1  0.81250000  0.25000000  0.37500000  1
  Ti  Ti3399  1  0.81250000  0.25000000  0.43750000  1
  V  V3400  1  0.81250000  0.25000000  0.50000000  1
  Ti  Ti3401  1  0.81250000  0.25000000  0.56250000  1
  V  V3402  1  0.81250000  0.25000000  0.62500000  1
  Ti  Ti3403  1  0.81250000  0.25000000  0.68750000  1
  V  V3404  1  0.81250000  0.25000000  0.75000000  1
  Ti  Ti3405  1  0.81250000  0.25000000  0.81250000  1
  V  V3406  1  0.81250000  0.25000000  0.87500000  1
  Ti  Ti3407  1  0.81250000  0.25000000  0.93750000  1
  Ti  Ti3408  1  0.81250000  0.31250000  0.00000000  1
  V  V3409  1  0.81250000  0.31250000  0.06250000  1
  Ti  Ti3410  1  0.81250000  0.31250000  0.12500000  1
  V  V3411  1  0.81250000  0.31250000  0.18750000  1
  Ti  Ti3412  1  0.81250000  0.31250000  0.25000000  1
  V  V3413  1  0.81250000  0.31250000  0.31250000  1
  Ti  Ti3414  1  0.81250000  0.31250000  0.37500000  1
  V  V3415  1  0.81250000  0.31250000  0.43750000  1
  Ti  Ti3416  1  0.81250000  0.31250000  0.50000000  1
  V  V3417  1  0.81250000  0.31250000  0.56250000  1
  Ti  Ti3418  1  0.81250000  0.31250000  0.62500000  1
  V  V3419  1  0.81250000  0.31250000  0.68750000  1
  Ti  Ti3420  1  0.81250000  0.31250000  0.75000000  1
  V  V3421  1  0.81250000  0.31250000  0.81250000  1
  Ti  Ti3422  1  0.81250000  0.31250000  0.87500000  1
  V  V3423  1  0.81250000  0.31250000  0.93750000  1
  V  V3424  1  0.81250000  0.37500000  0.00000000  1
  Ti  Ti3425  1  0.81250000  0.37500000  0.06250000  1
  V  V3426  1  0.81250000  0.37500000  0.12500000  1
  Ti  Ti3427  1  0.81250000  0.37500000  0.18750000  1
  V  V3428  1  0.81250000  0.37500000  0.25000000  1
  Ti  Ti3429  1  0.81250000  0.37500000  0.31250000  1
  V  V3430  1  0.81250000  0.37500000  0.37500000  1
  Ti  Ti3431  1  0.81250000  0.37500000  0.43750000  1
  V  V3432  1  0.81250000  0.37500000  0.50000000  1
  Ti  Ti3433  1  0.81250000  0.37500000  0.56250000  1
  V  V3434  1  0.81250000  0.37500000  0.62500000  1
  Ti  Ti3435  1  0.81250000  0.37500000  0.68750000  1
  V  V3436  1  0.81250000  0.37500000  0.75000000  1
  Ti  Ti3437  1  0.81250000  0.37500000  0.81250000  1
  V  V3438  1  0.81250000  0.37500000  0.87500000  1
  Ti  Ti3439  1  0.81250000  0.37500000  0.93750000  1
  Ti  Ti3440  1  0.81250000  0.43750000  0.00000000  1
  V  V3441  1  0.81250000  0.43750000  0.06250000  1
  Ti  Ti3442  1  0.81250000  0.43750000  0.12500000  1
  V  V3443  1  0.81250000  0.43750000  0.18750000  1
  Ti  Ti3444  1  0.81250000  0.43750000  0.25000000  1
  V  V3445  1  0.81250000  0.43750000  0.31250000  1
  Ti  Ti3446  1  0.81250000  0.43750000  0.37500000  1
  V  V3447  1  0.81250000  0.43750000  0.43750000  1
  Ti  Ti3448  1  0.81250000  0.43750000  0.50000000  1
  V  V3449  1  0.81250000  0.43750000  0.56250000  1
  Ti  Ti3450  1  0.81250000  0.43750000  0.62500000  1
  V  V3451  1  0.81250000  0.43750000  0.68750000  1
  Ti  Ti3452  1  0.81250000  0.43750000  0.75000000  1
  V  V3453  1  0.81250000  0.43750000  0.81250000  1
  Ti  Ti3454  1  0.81250000  0.43750000  0.87500000  1
  V  V3455  1  0.81250000  0.43750000  0.93750000  1
  V  V3456  1  0.81250000  0.50000000  0.00000000  1
  Ti  Ti3457  1  0.81250000  0.50000000  0.06250000  1
  V  V3458  1  0.81250000  0.50000000  0.12500000  1
  Ti  Ti3459  1  0.81250000  0.50000000  0.18750000  1
  V  V3460  1  0.81250000  0.50000000  0.25000000  1
  Ti  Ti3461  1  0.81250000  0.50000000  0.31250000  1
  V  V3462  1  0.81250000  0.50000000  0.37500000  1
  Ti  Ti3463  1  0.81250000  0.50000000  0.43750000  1
  V  V3464  1  0.81250000  0.50000000  0.50000000  1
  Ti  Ti3465  1  0.81250000  0.50000000  0.56250000  1
  V  V3466  1  0.81250000  0.50000000  0.62500000  1
  Ti  Ti3467  1  0.81250000  0.50000000  0.68750000  1
  V  V3468  1  0.81250000  0.50000000  0.75000000  1
  Ti  Ti3469  1  0.81250000  0.50000000  0.81250000  1
  V  V3470  1  0.81250000  0.50000000  0.87500000  1
  Ti  Ti3471  1  0.81250000  0.50000000  0.93750000  1
  Ti  Ti3472  1  0.81250000  0.56250000  0.00000000  1
  V  V3473  1  0.81250000  0.56250000  0.06250000  1
  Ti  Ti3474  1  0.81250000  0.56250000  0.12500000  1
  V  V3475  1  0.81250000  0.56250000  0.18750000  1
  Ti  Ti3476  1  0.81250000  0.56250000  0.25000000  1
  V  V3477  1  0.81250000  0.56250000  0.31250000  1
  Ti  Ti3478  1  0.81250000  0.56250000  0.37500000  1
  V  V3479  1  0.81250000  0.56250000  0.43750000  1
  Ti  Ti3480  1  0.81250000  0.56250000  0.50000000  1
  V  V3481  1  0.81250000  0.56250000  0.56250000  1
  Ti  Ti3482  1  0.81250000  0.56250000  0.62500000  1
  V  V3483  1  0.81250000  0.56250000  0.68750000  1
  Ti  Ti3484  1  0.81250000  0.56250000  0.75000000  1
  V  V3485  1  0.81250000  0.56250000  0.81250000  1
  Ti  Ti3486  1  0.81250000  0.56250000  0.87500000  1
  V  V3487  1  0.81250000  0.56250000  0.93750000  1
  V  V3488  1  0.81250000  0.62500000  0.00000000  1
  Ti  Ti3489  1  0.81250000  0.62500000  0.06250000  1
  V  V3490  1  0.81250000  0.62500000  0.12500000  1
  Ti  Ti3491  1  0.81250000  0.62500000  0.18750000  1
  V  V3492  1  0.81250000  0.62500000  0.25000000  1
  Ti  Ti3493  1  0.81250000  0.62500000  0.31250000  1
  V  V3494  1  0.81250000  0.62500000  0.37500000  1
  Ti  Ti3495  1  0.81250000  0.62500000  0.43750000  1
  V  V3496  1  0.81250000  0.62500000  0.50000000  1
  Ti  Ti3497  1  0.81250000  0.62500000  0.56250000  1
  V  V3498  1  0.81250000  0.62500000  0.62500000  1
  Ti  Ti3499  1  0.81250000  0.62500000  0.68750000  1
  V  V3500  1  0.81250000  0.62500000  0.75000000  1
  Ti  Ti3501  1  0.81250000  0.62500000  0.81250000  1
  V  V3502  1  0.81250000  0.62500000  0.87500000  1
  Ti  Ti3503  1  0.81250000  0.62500000  0.93750000  1
  Ti  Ti3504  1  0.81250000  0.68750000  0.00000000  1
  V  V3505  1  0.81250000  0.68750000  0.06250000  1
  Ti  Ti3506  1  0.81250000  0.68750000  0.12500000  1
  V  V3507  1  0.81250000  0.68750000  0.18750000  1
  Ti  Ti3508  1  0.81250000  0.68750000  0.25000000  1
  V  V3509  1  0.81250000  0.68750000  0.31250000  1
  Ti  Ti3510  1  0.81250000  0.68750000  0.37500000  1
  V  V3511  1  0.81250000  0.68750000  0.43750000  1
  Ti  Ti3512  1  0.81250000  0.68750000  0.50000000  1
  V  V3513  1  0.81250000  0.68750000  0.56250000  1
  Ti  Ti3514  1  0.81250000  0.68750000  0.62500000  1
  V  V3515  1  0.81250000  0.68750000  0.68750000  1
  Ti  Ti3516  1  0.81250000  0.68750000  0.75000000  1
  V  V3517  1  0.81250000  0.68750000  0.81250000  1
  Ti  Ti3518  1  0.81250000  0.68750000  0.87500000  1
  V  V3519  1  0.81250000  0.68750000  0.93750000  1
  V  V3520  1  0.81250000  0.75000000  0.00000000  1
  Ti  Ti3521  1  0.81250000  0.75000000  0.06250000  1
  V  V3522  1  0.81250000  0.75000000  0.12500000  1
  Ti  Ti3523  1  0.81250000  0.75000000  0.18750000  1
  V  V3524  1  0.81250000  0.75000000  0.25000000  1
  Ti  Ti3525  1  0.81250000  0.75000000  0.31250000  1
  V  V3526  1  0.81250000  0.75000000  0.37500000  1
  Ti  Ti3527  1  0.81250000  0.75000000  0.43750000  1
  V  V3528  1  0.81250000  0.75000000  0.50000000  1
  Ti  Ti3529  1  0.81250000  0.75000000  0.56250000  1
  V  V3530  1  0.81250000  0.75000000  0.62500000  1
  Ti  Ti3531  1  0.81250000  0.75000000  0.68750000  1
  V  V3532  1  0.81250000  0.75000000  0.75000000  1
  Ti  Ti3533  1  0.81250000  0.75000000  0.81250000  1
  V  V3534  1  0.81250000  0.75000000  0.87500000  1
  Ti  Ti3535  1  0.81250000  0.75000000  0.93750000  1
  Ti  Ti3536  1  0.81250000  0.81250000  0.00000000  1
  V  V3537  1  0.81250000  0.81250000  0.06250000  1
  Ti  Ti3538  1  0.81250000  0.81250000  0.12500000  1
  V  V3539  1  0.81250000  0.81250000  0.18750000  1
  Ti  Ti3540  1  0.81250000  0.81250000  0.25000000  1
  V  V3541  1  0.81250000  0.81250000  0.31250000  1
  Ti  Ti3542  1  0.81250000  0.81250000  0.37500000  1
  V  V3543  1  0.81250000  0.81250000  0.43750000  1
  Ti  Ti3544  1  0.81250000  0.81250000  0.50000000  1
  V  V3545  1  0.81250000  0.81250000  0.56250000  1
  Ti  Ti3546  1  0.81250000  0.81250000  0.62500000  1
  V  V3547  1  0.81250000  0.81250000  0.68750000  1
  Ti  Ti3548  1  0.81250000  0.81250000  0.75000000  1
  V  V3549  1  0.81250000  0.81250000  0.81250000  1
  Ti  Ti3550  1  0.81250000  0.81250000  0.87500000  1
  V  V3551  1  0.81250000  0.81250000  0.93750000  1
  V  V3552  1  0.81250000  0.87500000  0.00000000  1
  Ti  Ti3553  1  0.81250000  0.87500000  0.06250000  1
  V  V3554  1  0.81250000  0.87500000  0.12500000  1
  Ti  Ti3555  1  0.81250000  0.87500000  0.18750000  1
  V  V3556  1  0.81250000  0.87500000  0.25000000  1
  Ti  Ti3557  1  0.81250000  0.87500000  0.31250000  1
  V  V3558  1  0.81250000  0.87500000  0.37500000  1
  Ti  Ti3559  1  0.81250000  0.87500000  0.43750000  1
  V  V3560  1  0.81250000  0.87500000  0.50000000  1
  Ti  Ti3561  1  0.81250000  0.87500000  0.56250000  1
  V  V3562  1  0.81250000  0.87500000  0.62500000  1
  Ti  Ti3563  1  0.81250000  0.87500000  0.68750000  1
  V  V3564  1  0.81250000  0.87500000  0.75000000  1
  Ti  Ti3565  1  0.81250000  0.87500000  0.81250000  1
  V  V3566  1  0.81250000  0.87500000  0.87500000  1
  Ti  Ti3567  1  0.81250000  0.87500000  0.93750000  1
  Ti  Ti3568  1  0.81250000  0.93750000  0.00000000  1
  V  V3569  1  0.81250000  0.93750000  0.06250000  1
  Ti  Ti3570  1  0.81250000  0.93750000  0.12500000  1
  V  V3571  1  0.81250000  0.93750000  0.18750000  1
  Ti  Ti3572  1  0.81250000  0.93750000  0.25000000  1
  V  V3573  1  0.81250000  0.93750000  0.31250000  1
  Ti  Ti3574  1  0.81250000  0.93750000  0.37500000  1
  V  V3575  1  0.81250000  0.93750000  0.43750000  1
  Ti  Ti3576  1  0.81250000  0.93750000  0.50000000  1
  V  V3577  1  0.81250000  0.93750000  0.56250000  1
  Ti  Ti3578  1  0.81250000  0.93750000  0.62500000  1
  V  V3579  1  0.81250000  0.93750000  0.68750000  1
  Ti  Ti3580  1  0.81250000  0.93750000  0.75000000  1
  V  V3581  1  0.81250000  0.93750000  0.81250000  1
  Ti  Ti3582  1  0.81250000  0.93750000  0.87500000  1
  V  V3583  1  0.81250000  0.93750000  0.93750000  1
  Cr  Cr3584  1  0.87500000  0.00000000  0.00000000  1
  V  V3585  1  0.87500000  0.00000000  0.06250000  1
  Ti  Ti3586  1  0.87500000  0.00000000  0.12500000  1
  V  V3587  1  0.87500000  0.00000000  0.18750000  1
  Ti  Ti3588  1  0.87500000  0.00000000  0.25000000  1
  V  V3589  1  0.87500000  0.00000000  0.31250000  1
  Ti  Ti3590  1  0.87500000  0.00000000  0.37500000  1
  V  V3591  1  0.87500000  0.00000000  0.43750000  1
  Ti  Ti3592  1  0.87500000  0.00000000  0.50000000  1
  V  V3593  1  0.87500000  0.00000000  0.56250000  1
  Ti  Ti3594  1  0.87500000  0.00000000  0.62500000  1
  V  V3595  1  0.87500000  0.00000000  0.68750000  1
  Ti  Ti3596  1  0.87500000  0.00000000  0.75000000  1
  V  V3597  1  0.87500000  0.00000000  0.81250000  1
  Cr  Cr3598  1  0.87500000  0.00000000  0.87500000  1
  V  V3599  1  0.87500000  0.00000000  0.93750000  1
  V  V3600  1  0.87500000  0.06250000  0.00000000  1
  Cr  Cr3601  1  0.87500000  0.06250000  0.06250000  1
  V  V3602  1  0.87500000  0.06250000  0.12500000  1
  Ti  Ti3603  1  0.87500000  0.06250000  0.18750000  1
  V  V3604  1  0.87500000  0.06250000  0.25000000  1
  Ti  Ti3605  1  0.87500000  0.06250000  0.31250000  1
  V  V3606  1  0.87500000  0.06250000  0.37500000  1
  Ti  Ti3607  1  0.87500000  0.06250000  0.43750000  1
  V  V3608  1  0.87500000  0.06250000  0.50000000  1
  Ti  Ti3609  1  0.87500000  0.06250000  0.56250000  1
  V  V3610  1  0.87500000  0.06250000  0.62500000  1
  Ti  Ti3611  1  0.87500000  0.06250000  0.68750000  1
  V  V3612  1  0.87500000  0.06250000  0.75000000  1
  Cr  Cr3613  1  0.87500000  0.06250000  0.81250000  1
  V  V3614  1  0.87500000  0.06250000  0.87500000  1
  Cr  Cr3615  1  0.87500000  0.06250000  0.93750000  1
  Cr  Cr3616  1  0.87500000  0.12500000  0.00000000  1
  V  V3617  1  0.87500000  0.12500000  0.06250000  1
  Cr  Cr3618  1  0.87500000  0.12500000  0.12500000  1
  V  V3619  1  0.87500000  0.12500000  0.18750000  1
  Cr  Cr3620  1  0.87500000  0.12500000  0.25000000  1
  V  V3621  1  0.87500000  0.12500000  0.31250000  1
  Ti  Ti3622  1  0.87500000  0.12500000  0.37500000  1
  V  V3623  1  0.87500000  0.12500000  0.43750000  1
  Ti  Ti3624  1  0.87500000  0.12500000  0.50000000  1
  V  V3625  1  0.87500000  0.12500000  0.56250000  1
  Cr  Cr3626  1  0.87500000  0.12500000  0.62500000  1
  V  V3627  1  0.87500000  0.12500000  0.68750000  1
  Cr  Cr3628  1  0.87500000  0.12500000  0.75000000  1
  V  V3629  1  0.87500000  0.12500000  0.81250000  1
  Cr  Cr3630  1  0.87500000  0.12500000  0.87500000  1
  V  V3631  1  0.87500000  0.12500000  0.93750000  1
  V  V3632  1  0.87500000  0.18750000  0.00000000  1
  V  V3633  1  0.87500000  0.18750000  0.06250000  1
  V  V3634  1  0.87500000  0.18750000  0.12500000  1
  V  V3635  1  0.87500000  0.18750000  0.18750000  1
  V  V3636  1  0.87500000  0.18750000  0.25000000  1
  Cr  Cr3637  1  0.87500000  0.18750000  0.31250000  1
  V  V3638  1  0.87500000  0.18750000  0.37500000  1
  Ti  Ti3639  1  0.87500000  0.18750000  0.43750000  1
  V  V3640  1  0.87500000  0.18750000  0.50000000  1
  Ti  Ti3641  1  0.87500000  0.18750000  0.56250000  1
  V  V3642  1  0.87500000  0.18750000  0.62500000  1
  Ti  Ti3643  1  0.87500000  0.18750000  0.68750000  1
  V  V3644  1  0.87500000  0.18750000  0.75000000  1
  V  V3645  1  0.87500000  0.18750000  0.81250000  1
  V  V3646  1  0.87500000  0.18750000  0.87500000  1
  V  V3647  1  0.87500000  0.18750000  0.93750000  1
  V  V3648  1  0.87500000  0.25000000  0.00000000  1
  V  V3649  1  0.87500000  0.25000000  0.06250000  1
  V  V3650  1  0.87500000  0.25000000  0.12500000  1
  V  V3651  1  0.87500000  0.25000000  0.18750000  1
  V  V3652  1  0.87500000  0.25000000  0.25000000  1
  V  V3653  1  0.87500000  0.25000000  0.31250000  1
  Cr  Cr3654  1  0.87500000  0.25000000  0.37500000  1
  V  V3655  1  0.87500000  0.25000000  0.43750000  1
  Ti  Ti3656  1  0.87500000  0.25000000  0.50000000  1
  V  V3657  1  0.87500000  0.25000000  0.56250000  1
  Ti  Ti3658  1  0.87500000  0.25000000  0.62500000  1
  V  V3659  1  0.87500000  0.25000000  0.68750000  1
  Ti  Ti3660  1  0.87500000  0.25000000  0.75000000  1
  V  V3661  1  0.87500000  0.25000000  0.81250000  1
  V  V3662  1  0.87500000  0.25000000  0.87500000  1
  V  V3663  1  0.87500000  0.25000000  0.93750000  1
  V  V3664  1  0.87500000  0.31250000  0.00000000  1
  V  V3665  1  0.87500000  0.31250000  0.06250000  1
  V  V3666  1  0.87500000  0.31250000  0.12500000  1
  V  V3667  1  0.87500000  0.31250000  0.18750000  1
  V  V3668  1  0.87500000  0.31250000  0.25000000  1
  Cr  Cr3669  1  0.87500000  0.31250000  0.31250000  1
  V  V3670  1  0.87500000  0.31250000  0.37500000  1
  Cr  Cr3671  1  0.87500000  0.31250000  0.43750000  1
  V  V3672  1  0.87500000  0.31250000  0.50000000  1
  Ti  Ti3673  1  0.87500000  0.31250000  0.56250000  1
  V  V3674  1  0.87500000  0.31250000  0.62500000  1
  Ti  Ti3675  1  0.87500000  0.31250000  0.68750000  1
  V  V3676  1  0.87500000  0.31250000  0.75000000  1
  Ti  Ti3677  1  0.87500000  0.31250000  0.81250000  1
  V  V3678  1  0.87500000  0.31250000  0.87500000  1
  Cr  Cr3679  1  0.87500000  0.31250000  0.93750000  1
  Ti  Ti3680  1  0.87500000  0.37500000  0.00000000  1
  V  V3681  1  0.87500000  0.37500000  0.06250000  1
  Cr  Cr3682  1  0.87500000  0.37500000  0.12500000  1
  V  V3683  1  0.87500000  0.37500000  0.18750000  1
  Cr  Cr3684  1  0.87500000  0.37500000  0.25000000  1
  V  V3685  1  0.87500000  0.37500000  0.31250000  1
  Ti  Ti3686  1  0.87500000  0.37500000  0.37500000  1
  V  V3687  1  0.87500000  0.37500000  0.43750000  1
  Ti  Ti3688  1  0.87500000  0.37500000  0.50000000  1
  V  V3689  1  0.87500000  0.37500000  0.56250000  1
  Ti  Ti3690  1  0.87500000  0.37500000  0.62500000  1
  V  V3691  1  0.87500000  0.37500000  0.68750000  1
  Ti  Ti3692  1  0.87500000  0.37500000  0.75000000  1
  V  V3693  1  0.87500000  0.37500000  0.81250000  1
  Ti  Ti3694  1  0.87500000  0.37500000  0.87500000  1
  V  V3695  1  0.87500000  0.37500000  0.93750000  1
  V  V3696  1  0.87500000  0.43750000  0.00000000  1
  Ti  Ti3697  1  0.87500000  0.43750000  0.06250000  1
  V  V3698  1  0.87500000  0.43750000  0.12500000  1
  Ti  Ti3699  1  0.87500000  0.43750000  0.18750000  1
  V  V3700  1  0.87500000  0.43750000  0.25000000  1
  Ti  Ti3701  1  0.87500000  0.43750000  0.31250000  1
  V  V3702  1  0.87500000  0.43750000  0.37500000  1
  Ti  Ti3703  1  0.87500000  0.43750000  0.43750000  1
  V  V3704  1  0.87500000  0.43750000  0.50000000  1
  Ti  Ti3705  1  0.87500000  0.43750000  0.56250000  1
  V  V3706  1  0.87500000  0.43750000  0.62500000  1
  Ti  Ti3707  1  0.87500000  0.43750000  0.68750000  1
  V  V3708  1  0.87500000  0.43750000  0.75000000  1
  Ti  Ti3709  1  0.87500000  0.43750000  0.81250000  1
  V  V3710  1  0.87500000  0.43750000  0.87500000  1
  Ti  Ti3711  1  0.87500000  0.43750000  0.93750000  1
  Ti  Ti3712  1  0.87500000  0.50000000  0.00000000  1
  V  V3713  1  0.87500000  0.50000000  0.06250000  1
  Ti  Ti3714  1  0.87500000  0.50000000  0.12500000  1
  V  V3715  1  0.87500000  0.50000000  0.18750000  1
  Ti  Ti3716  1  0.87500000  0.50000000  0.25000000  1
  V  V3717  1  0.87500000  0.50000000  0.31250000  1
  Ti  Ti3718  1  0.87500000  0.50000000  0.37500000  1
  V  V3719  1  0.87500000  0.50000000  0.43750000  1
  Ti  Ti3720  1  0.87500000  0.50000000  0.50000000  1
  V  V3721  1  0.87500000  0.50000000  0.56250000  1
  Ti  Ti3722  1  0.87500000  0.50000000  0.62500000  1
  V  V3723  1  0.87500000  0.50000000  0.68750000  1
  Ti  Ti3724  1  0.87500000  0.50000000  0.75000000  1
  V  V3725  1  0.87500000  0.50000000  0.81250000  1
  Ti  Ti3726  1  0.87500000  0.50000000  0.87500000  1
  V  V3727  1  0.87500000  0.50000000  0.93750000  1
  V  V3728  1  0.87500000  0.56250000  0.00000000  1
  Ti  Ti3729  1  0.87500000  0.56250000  0.06250000  1
  V  V3730  1  0.87500000  0.56250000  0.12500000  1
  Ti  Ti3731  1  0.87500000  0.56250000  0.18750000  1
  V  V3732  1  0.87500000  0.56250000  0.25000000  1
  Ti  Ti3733  1  0.87500000  0.56250000  0.31250000  1
  V  V3734  1  0.87500000  0.56250000  0.37500000  1
  Ti  Ti3735  1  0.87500000  0.56250000  0.43750000  1
  V  V3736  1  0.87500000  0.56250000  0.50000000  1
  Ti  Ti3737  1  0.87500000  0.56250000  0.56250000  1
  V  V3738  1  0.87500000  0.56250000  0.62500000  1
  Ti  Ti3739  1  0.87500000  0.56250000  0.68750000  1
  V  V3740  1  0.87500000  0.56250000  0.75000000  1
  Ti  Ti3741  1  0.87500000  0.56250000  0.81250000  1
  V  V3742  1  0.87500000  0.56250000  0.87500000  1
  Ti  Ti3743  1  0.87500000  0.56250000  0.93750000  1
  Ti  Ti3744  1  0.87500000  0.62500000  0.00000000  1
  V  V3745  1  0.87500000  0.62500000  0.06250000  1
  Ti  Ti3746  1  0.87500000  0.62500000  0.12500000  1
  V  V3747  1  0.87500000  0.62500000  0.18750000  1
  Ti  Ti3748  1  0.87500000  0.62500000  0.25000000  1
  V  V3749  1  0.87500000  0.62500000  0.31250000  1
  Ti  Ti3750  1  0.87500000  0.62500000  0.37500000  1
  V  V3751  1  0.87500000  0.62500000  0.43750000  1
  Ti  Ti3752  1  0.87500000  0.62500000  0.50000000  1
  V  V3753  1  0.87500000  0.62500000  0.56250000  1
  Ti  Ti3754  1  0.87500000  0.62500000  0.62500000  1
  V  V3755  1  0.87500000  0.62500000  0.68750000  1
  Ti  Ti3756  1  0.87500000  0.62500000  0.75000000  1
  V  V3757  1  0.87500000  0.62500000  0.81250000  1
  Ti  Ti3758  1  0.87500000  0.62500000  0.87500000  1
  V  V3759  1  0.87500000  0.62500000  0.93750000  1
  V  V3760  1  0.87500000  0.68750000  0.00000000  1
  Ti  Ti3761  1  0.87500000  0.68750000  0.06250000  1
  V  V3762  1  0.87500000  0.68750000  0.12500000  1
  Ti  Ti3763  1  0.87500000  0.68750000  0.18750000  1
  V  V3764  1  0.87500000  0.68750000  0.25000000  1
  Ti  Ti3765  1  0.87500000  0.68750000  0.31250000  1
  V  V3766  1  0.87500000  0.68750000  0.37500000  1
  Ti  Ti3767  1  0.87500000  0.68750000  0.43750000  1
  V  V3768  1  0.87500000  0.68750000  0.50000000  1
  Ti  Ti3769  1  0.87500000  0.68750000  0.56250000  1
  V  V3770  1  0.87500000  0.68750000  0.62500000  1
  Ti  Ti3771  1  0.87500000  0.68750000  0.68750000  1
  V  V3772  1  0.87500000  0.68750000  0.75000000  1
  Ti  Ti3773  1  0.87500000  0.68750000  0.81250000  1
  V  V3774  1  0.87500000  0.68750000  0.87500000  1
  Ti  Ti3775  1  0.87500000  0.68750000  0.93750000  1
  Ti  Ti3776  1  0.87500000  0.75000000  0.00000000  1
  V  V3777  1  0.87500000  0.75000000  0.06250000  1
  Ti  Ti3778  1  0.87500000  0.75000000  0.12500000  1
  V  V3779  1  0.87500000  0.75000000  0.18750000  1
  Ti  Ti3780  1  0.87500000  0.75000000  0.25000000  1
  V  V3781  1  0.87500000  0.75000000  0.31250000  1
  Ti  Ti3782  1  0.87500000  0.75000000  0.37500000  1
  V  V3783  1  0.87500000  0.75000000  0.43750000  1
  Ti  Ti3784  1  0.87500000  0.75000000  0.50000000  1
  V  V3785  1  0.87500000  0.75000000  0.56250000  1
  Ti  Ti3786  1  0.87500000  0.75000000  0.62500000  1
  V  V3787  1  0.87500000  0.75000000  0.68750000  1
  Ti  Ti3788  1  0.87500000  0.75000000  0.75000000  1
  V  V3789  1  0.87500000  0.75000000  0.81250000  1
  Ti  Ti3790  1  0.87500000  0.75000000  0.87500000  1
  V  V3791  1  0.87500000  0.75000000  0.93750000  1
  V  V3792  1  0.87500000  0.81250000  0.00000000  1
  Ti  Ti3793  1  0.87500000  0.81250000  0.06250000  1
  V  V3794  1  0.87500000  0.81250000  0.12500000  1
  Ti  Ti3795  1  0.87500000  0.81250000  0.18750000  1
  V  V3796  1  0.87500000  0.81250000  0.25000000  1
  Ti  Ti3797  1  0.87500000  0.81250000  0.31250000  1
  V  V3798  1  0.87500000  0.81250000  0.37500000  1
  Ti  Ti3799  1  0.87500000  0.81250000  0.43750000  1
  V  V3800  1  0.87500000  0.81250000  0.50000000  1
  Ti  Ti3801  1  0.87500000  0.81250000  0.56250000  1
  V  V3802  1  0.87500000  0.81250000  0.62500000  1
  Ti  Ti3803  1  0.87500000  0.81250000  0.68750000  1
  V  V3804  1  0.87500000  0.81250000  0.75000000  1
  Ti  Ti3805  1  0.87500000  0.81250000  0.81250000  1
  V  V3806  1  0.87500000  0.81250000  0.87500000  1
  Ti  Ti3807  1  0.87500000  0.81250000  0.93750000  1
  Ti  Ti3808  1  0.87500000  0.87500000  0.00000000  1
  V  V3809  1  0.87500000  0.87500000  0.06250000  1
  Ti  Ti3810  1  0.87500000  0.87500000  0.12500000  1
  V  V3811  1  0.87500000  0.87500000  0.18750000  1
  Ti  Ti3812  1  0.87500000  0.87500000  0.25000000  1
  V  V3813  1  0.87500000  0.87500000  0.31250000  1
  Ti  Ti3814  1  0.87500000  0.87500000  0.37500000  1
  V  V3815  1  0.87500000  0.87500000  0.43750000  1
  Ti  Ti3816  1  0.87500000  0.87500000  0.50000000  1
  V  V3817  1  0.87500000  0.87500000  0.56250000  1
  Ti  Ti3818  1  0.87500000  0.87500000  0.62500000  1
  V  V3819  1  0.87500000  0.87500000  0.68750000  1
  Ti  Ti3820  1  0.87500000  0.87500000  0.75000000  1
  V  V3821  1  0.87500000  0.87500000  0.81250000  1
  Ti  Ti3822  1  0.87500000  0.87500000  0.87500000  1
  V  V3823  1  0.87500000  0.87500000  0.93750000  1
  V  V3824  1  0.87500000  0.93750000  0.00000000  1
  Ti  Ti3825  1  0.87500000  0.93750000  0.06250000  1
  V  V3826  1  0.87500000  0.93750000  0.12500000  1
  Ti  Ti3827  1  0.87500000  0.93750000  0.18750000  1
  V  V3828  1  0.87500000  0.93750000  0.25000000  1
  Ti  Ti3829  1  0.87500000  0.93750000  0.31250000  1
  V  V3830  1  0.87500000  0.93750000  0.37500000  1
  Ti  Ti3831  1  0.87500000  0.93750000  0.43750000  1
  V  V3832  1  0.87500000  0.93750000  0.50000000  1
  Ti  Ti3833  1  0.87500000  0.93750000  0.56250000  1
  V  V3834  1  0.87500000  0.93750000  0.62500000  1
  Ti  Ti3835  1  0.87500000  0.93750000  0.68750000  1
  V  V3836  1  0.87500000  0.93750000  0.75000000  1
  Ti  Ti3837  1  0.87500000  0.93750000  0.81250000  1
  V  V3838  1  0.87500000  0.93750000  0.87500000  1
  Ti  Ti3839  1  0.87500000  0.93750000  0.93750000  1
  V  V3840  1  0.93750000  0.00000000  0.00000000  1
  Cr  Cr3841  1  0.93750000  0.00000000  0.06250000  1
  V  V3842  1  0.93750000  0.00000000  0.12500000  1
  Ti  Ti3843  1  0.93750000  0.00000000  0.18750000  1
  V  V3844  1  0.93750000  0.00000000  0.25000000  1
  Ti  Ti3845  1  0.93750000  0.00000000  0.31250000  1
  V  V3846  1  0.93750000  0.00000000  0.37500000  1
  Ti  Ti3847  1  0.93750000  0.00000000  0.43750000  1
  V  V3848  1  0.93750000  0.00000000  0.50000000  1
  Cr  Cr3849  1  0.93750000  0.00000000  0.56250000  1
  V  V3850  1  0.93750000  0.00000000  0.62500000  1
  Cr  Cr3851  1  0.93750000  0.00000000  0.68750000  1
  V  V3852  1  0.93750000  0.00000000  0.75000000  1
  Cr  Cr3853  1  0.93750000  0.00000000  0.81250000  1
  V  V3854  1  0.93750000  0.00000000  0.87500000  1
  Cr  Cr3855  1  0.93750000  0.00000000  0.93750000  1
  V  V3856  1  0.93750000  0.06250000  0.00000000  1
  V  V3857  1  0.93750000  0.06250000  0.06250000  1
  Cr  Cr3858  1  0.93750000  0.06250000  0.12500000  1
  V  V3859  1  0.93750000  0.06250000  0.18750000  1
  Cr  Cr3860  1  0.93750000  0.06250000  0.25000000  1
  V  V3861  1  0.93750000  0.06250000  0.31250000  1
  Ti  Ti3862  1  0.93750000  0.06250000  0.37500000  1
  V  V3863  1  0.93750000  0.06250000  0.43750000  1
  Cr  Cr3864  1  0.93750000  0.06250000  0.50000000  1
  V  V3865  1  0.93750000  0.06250000  0.56250000  1
  Cr  Cr3866  1  0.93750000  0.06250000  0.62500000  1
  V  V3867  1  0.93750000  0.06250000  0.68750000  1
  Cr  Cr3868  1  0.93750000  0.06250000  0.75000000  1
  V  V3869  1  0.93750000  0.06250000  0.81250000  1
  Cr  Cr3870  1  0.93750000  0.06250000  0.87500000  1
  V  V3871  1  0.93750000  0.06250000  0.93750000  1
  V  V3872  1  0.93750000  0.12500000  0.00000000  1
  V  V3873  1  0.93750000  0.12500000  0.06250000  1
  V  V3874  1  0.93750000  0.12500000  0.12500000  1
  Cr  Cr3875  1  0.93750000  0.12500000  0.18750000  1
  V  V3876  1  0.93750000  0.12500000  0.25000000  1
  Cr  Cr3877  1  0.93750000  0.12500000  0.31250000  1
  V  V3878  1  0.93750000  0.12500000  0.37500000  1
  Cr  Cr3879  1  0.93750000  0.12500000  0.43750000  1
  V  V3880  1  0.93750000  0.12500000  0.50000000  1
  Cr  Cr3881  1  0.93750000  0.12500000  0.56250000  1
  V  V3882  1  0.93750000  0.12500000  0.62500000  1
  V  V3883  1  0.93750000  0.12500000  0.68750000  1
  Cr  Cr3884  1  0.93750000  0.12500000  0.75000000  1
  V  V3885  1  0.93750000  0.12500000  0.81250000  1
  Cr  Cr3886  1  0.93750000  0.12500000  0.87500000  1
  V  V3887  1  0.93750000  0.12500000  0.93750000  1
  V  V3888  1  0.93750000  0.18750000  0.00000000  1
  V  V3889  1  0.93750000  0.18750000  0.06250000  1
  V  V3890  1  0.93750000  0.18750000  0.12500000  1
  V  V3891  1  0.93750000  0.18750000  0.18750000  1
  Cr  Cr3892  1  0.93750000  0.18750000  0.25000000  1
  V  V3893  1  0.93750000  0.18750000  0.31250000  1
  Cr  Cr3894  1  0.93750000  0.18750000  0.37500000  1
  V  V3895  1  0.93750000  0.18750000  0.43750000  1
  Cr  Cr3896  1  0.93750000  0.18750000  0.50000000  1
  V  V3897  1  0.93750000  0.18750000  0.56250000  1
  Cr  Cr3898  1  0.93750000  0.18750000  0.62500000  1
  V  V3899  1  0.93750000  0.18750000  0.68750000  1
  V  V3900  1  0.93750000  0.18750000  0.75000000  1
  V  V3901  1  0.93750000  0.18750000  0.81250000  1
  V  V3902  1  0.93750000  0.18750000  0.87500000  1
  V  V3903  1  0.93750000  0.18750000  0.93750000  1
  V  V3904  1  0.93750000  0.25000000  0.00000000  1
  V  V3905  1  0.93750000  0.25000000  0.06250000  1
  V  V3906  1  0.93750000  0.25000000  0.12500000  1
  V  V3907  1  0.93750000  0.25000000  0.18750000  1
  V  V3908  1  0.93750000  0.25000000  0.25000000  1
  V  V3909  1  0.93750000  0.25000000  0.31250000  1
  V  V3910  1  0.93750000  0.25000000  0.37500000  1
  Cr  Cr3911  1  0.93750000  0.25000000  0.43750000  1
  V  V3912  1  0.93750000  0.25000000  0.50000000  1
  Cr  Cr3913  1  0.93750000  0.25000000  0.56250000  1
  V  V3914  1  0.93750000  0.25000000  0.62500000  1
  Cr  Cr3915  1  0.93750000  0.25000000  0.68750000  1
  V  V3916  1  0.93750000  0.25000000  0.75000000  1
  V  V3917  1  0.93750000  0.25000000  0.81250000  1
  V  V3918  1  0.93750000  0.25000000  0.87500000  1
  V  V3919  1  0.93750000  0.25000000  0.93750000  1
  V  V3920  1  0.93750000  0.31250000  0.00000000  1
  V  V3921  1  0.93750000  0.31250000  0.06250000  1
  V  V3922  1  0.93750000  0.31250000  0.12500000  1
  V  V3923  1  0.93750000  0.31250000  0.18750000  1
  V  V3924  1  0.93750000  0.31250000  0.25000000  1
  V  V3925  1  0.93750000  0.31250000  0.31250000  1
  V  V3926  1  0.93750000  0.31250000  0.37500000  1
  V  V3927  1  0.93750000  0.31250000  0.43750000  1
  Cr  Cr3928  1  0.93750000  0.31250000  0.50000000  1
  V  V3929  1  0.93750000  0.31250000  0.56250000  1
  Ti  Ti3930  1  0.93750000  0.31250000  0.62500000  1
  V  V3931  1  0.93750000  0.31250000  0.68750000  1
  Ti  Ti3932  1  0.93750000  0.31250000  0.75000000  1
  V  V3933  1  0.93750000  0.31250000  0.81250000  1
  V  V3934  1  0.93750000  0.31250000  0.87500000  1
  V  V3935  1  0.93750000  0.31250000  0.93750000  1
  V  V3936  1  0.93750000  0.37500000  0.00000000  1
  V  V3937  1  0.93750000  0.37500000  0.06250000  1
  V  V3938  1  0.93750000  0.37500000  0.12500000  1
  V  V3939  1  0.93750000  0.37500000  0.18750000  1
  V  V3940  1  0.93750000  0.37500000  0.25000000  1
  V  V3941  1  0.93750000  0.37500000  0.31250000  1
  V  V3942  1  0.93750000  0.37500000  0.37500000  1
  Cr  Cr3943  1  0.93750000  0.37500000  0.43750000  1
  V  V3944  1  0.93750000  0.37500000  0.50000000  1
  Ti  Ti3945  1  0.93750000  0.37500000  0.56250000  1
  V  V3946  1  0.93750000  0.37500000  0.62500000  1
  Ti  Ti3947  1  0.93750000  0.37500000  0.68750000  1
  V  V3948  1  0.93750000  0.37500000  0.75000000  1
  Ti  Ti3949  1  0.93750000  0.37500000  0.81250000  1
  V  V3950  1  0.93750000  0.37500000  0.87500000  1
  V  V3951  1  0.93750000  0.37500000  0.93750000  1
  Cr  Cr3952  1  0.93750000  0.43750000  0.00000000  1
  V  V3953  1  0.93750000  0.43750000  0.06250000  1
  Cr  Cr3954  1  0.93750000  0.43750000  0.12500000  1
  V  V3955  1  0.93750000  0.43750000  0.18750000  1
  V  V3956  1  0.93750000  0.43750000  0.25000000  1
  V  V3957  1  0.93750000  0.43750000  0.31250000  1
  Cr  Cr3958  1  0.93750000  0.43750000  0.37500000  1
  V  V3959  1  0.93750000  0.43750000  0.43750000  1
  Ti  Ti3960  1  0.93750000  0.43750000  0.50000000  1
  V  V3961  1  0.93750000  0.43750000  0.56250000  1
  Ti  Ti3962  1  0.93750000  0.43750000  0.62500000  1
  V  V3963  1  0.93750000  0.43750000  0.68750000  1
  Ti  Ti3964  1  0.93750000  0.43750000  0.75000000  1
  V  V3965  1  0.93750000  0.43750000  0.81250000  1
  Ti  Ti3966  1  0.93750000  0.43750000  0.87500000  1
  V  V3967  1  0.93750000  0.43750000  0.93750000  1
  V  V3968  1  0.93750000  0.50000000  0.00000000  1
  Cr  Cr3969  1  0.93750000  0.50000000  0.06250000  1
  V  V3970  1  0.93750000  0.50000000  0.12500000  1
  Cr  Cr3971  1  0.93750000  0.50000000  0.18750000  1
  V  V3972  1  0.93750000  0.50000000  0.25000000  1
  Cr  Cr3973  1  0.93750000  0.50000000  0.31250000  1
  V  V3974  1  0.93750000  0.50000000  0.37500000  1
  Ti  Ti3975  1  0.93750000  0.50000000  0.43750000  1
  V  V3976  1  0.93750000  0.50000000  0.50000000  1
  Ti  Ti3977  1  0.93750000  0.50000000  0.56250000  1
  V  V3978  1  0.93750000  0.50000000  0.62500000  1
  Ti  Ti3979  1  0.93750000  0.50000000  0.68750000  1
  V  V3980  1  0.93750000  0.50000000  0.75000000  1
  Ti  Ti3981  1  0.93750000  0.50000000  0.81250000  1
  V  V3982  1  0.93750000  0.50000000  0.87500000  1
  Ti  Ti3983  1  0.93750000  0.50000000  0.93750000  1
  Ti  Ti3984  1  0.93750000  0.56250000  0.00000000  1
  V  V3985  1  0.93750000  0.56250000  0.06250000  1
  Cr  Cr3986  1  0.93750000  0.56250000  0.12500000  1
  V  V3987  1  0.93750000  0.56250000  0.18750000  1
  Cr  Cr3988  1  0.93750000  0.56250000  0.25000000  1
  V  V3989  1  0.93750000  0.56250000  0.31250000  1
  Ti  Ti3990  1  0.93750000  0.56250000  0.37500000  1
  V  V3991  1  0.93750000  0.56250000  0.43750000  1
  Ti  Ti3992  1  0.93750000  0.56250000  0.50000000  1
  V  V3993  1  0.93750000  0.56250000  0.56250000  1
  Ti  Ti3994  1  0.93750000  0.56250000  0.62500000  1
  V  V3995  1  0.93750000  0.56250000  0.68750000  1
  Ti  Ti3996  1  0.93750000  0.56250000  0.75000000  1
  V  V3997  1  0.93750000  0.56250000  0.81250000  1
  Ti  Ti3998  1  0.93750000  0.56250000  0.87500000  1
  V  V3999  1  0.93750000  0.56250000  0.93750000  1
  V  V4000  1  0.93750000  0.62500000  0.00000000  1
  Ti  Ti4001  1  0.93750000  0.62500000  0.06250000  1
  V  V4002  1  0.93750000  0.62500000  0.12500000  1
  Ti  Ti4003  1  0.93750000  0.62500000  0.18750000  1
  V  V4004  1  0.93750000  0.62500000  0.25000000  1
  Ti  Ti4005  1  0.93750000  0.62500000  0.31250000  1
  V  V4006  1  0.93750000  0.62500000  0.37500000  1
  Ti  Ti4007  1  0.93750000  0.62500000  0.43750000  1
  V  V4008  1  0.93750000  0.62500000  0.50000000  1
  Ti  Ti4009  1  0.93750000  0.62500000  0.56250000  1
  V  V4010  1  0.93750000  0.62500000  0.62500000  1
  Ti  Ti4011  1  0.93750000  0.62500000  0.68750000  1
  V  V4012  1  0.93750000  0.62500000  0.75000000  1
  Ti  Ti4013  1  0.93750000  0.62500000  0.81250000  1
  V  V4014  1  0.93750000  0.62500000  0.87500000  1
  Ti  Ti4015  1  0.93750000  0.62500000  0.93750000  1
  Ti  Ti4016  1  0.93750000  0.68750000  0.00000000  1
  V  V4017  1  0.93750000  0.68750000  0.06250000  1
  Ti  Ti4018  1  0.93750000  0.68750000  0.12500000  1
  V  V4019  1  0.93750000  0.68750000  0.18750000  1
  Ti  Ti4020  1  0.93750000  0.68750000  0.25000000  1
  V  V4021  1  0.93750000  0.68750000  0.31250000  1
  Ti  Ti4022  1  0.93750000  0.68750000  0.37500000  1
  V  V4023  1  0.93750000  0.68750000  0.43750000  1
  Ti  Ti4024  1  0.93750000  0.68750000  0.50000000  1
  V  V4025  1  0.93750000  0.68750000  0.56250000  1
  Ti  Ti4026  1  0.93750000  0.68750000  0.62500000  1
  V  V4027  1  0.93750000  0.68750000  0.68750000  1
  Ti  Ti4028  1  0.93750000  0.68750000  0.75000000  1
  V  V4029  1  0.93750000  0.68750000  0.81250000  1
  Ti  Ti4030  1  0.93750000  0.68750000  0.87500000  1
  V  V4031  1  0.93750000  0.68750000  0.93750000  1
  V  V4032  1  0.93750000  0.75000000  0.00000000  1
  Ti  Ti4033  1  0.93750000  0.75000000  0.06250000  1
  V  V4034  1  0.93750000  0.75000000  0.12500000  1
  Ti  Ti4035  1  0.93750000  0.75000000  0.18750000  1
  V  V4036  1  0.93750000  0.75000000  0.25000000  1
  Ti  Ti4037  1  0.93750000  0.75000000  0.31250000  1
  V  V4038  1  0.93750000  0.75000000  0.37500000  1
  Ti  Ti4039  1  0.93750000  0.75000000  0.43750000  1
  V  V4040  1  0.93750000  0.75000000  0.50000000  1
  Ti  Ti4041  1  0.93750000  0.75000000  0.56250000  1
  V  V4042  1  0.93750000  0.75000000  0.62500000  1
  Ti  Ti4043  1  0.93750000  0.75000000  0.68750000  1
  V  V4044  1  0.93750000  0.75000000  0.75000000  1
  Ti  Ti4045  1  0.93750000  0.75000000  0.81250000  1
  V  V4046  1  0.93750000  0.75000000  0.87500000  1
  Ti  Ti4047  1  0.93750000  0.75000000  0.93750000  1
  Ti  Ti4048  1  0.93750000  0.81250000  0.00000000  1
  V  V4049  1  0.93750000  0.81250000  0.06250000  1
  Ti  Ti4050  1  0.93750000  0.81250000  0.12500000  1
  V  V4051  1  0.93750000  0.81250000  0.18750000  1
  Ti  Ti4052  1  0.93750000  0.81250000  0.25000000  1
  V  V4053  1  0.93750000  0.81250000  0.31250000  1
  Ti  Ti4054  1  0.93750000  0.81250000  0.37500000  1
  V  V4055  1  0.93750000  0.81250000  0.43750000  1
  Ti  Ti4056  1  0.93750000  0.81250000  0.50000000  1
  V  V4057  1  0.93750000  0.81250000  0.56250000  1
  Ti  Ti4058  1  0.93750000  0.81250000  0.62500000  1
  V  V4059  1  0.93750000  0.81250000  0.68750000  1
  Ti  Ti4060  1  0.93750000  0.81250000  0.75000000  1
  V  V4061  1  0.93750000  0.81250000  0.81250000  1
  Ti  Ti4062  1  0.93750000  0.81250000  0.87500000  1
  V  V4063  1  0.93750000  0.81250000  0.93750000  1
  V  V4064  1  0.93750000  0.87500000  0.00000000  1
  Ti  Ti4065  1  0.93750000  0.87500000  0.06250000  1
  V  V4066  1  0.93750000  0.87500000  0.12500000  1
  Ti  Ti4067  1  0.93750000  0.87500000  0.18750000  1
  V  V4068  1  0.93750000  0.87500000  0.25000000  1
  Ti  Ti4069  1  0.93750000  0.87500000  0.31250000  1
  V  V4070  1  0.93750000  0.87500000  0.37500000  1
  Ti  Ti4071  1  0.93750000  0.87500000  0.43750000  1
  V  V4072  1  0.93750000  0.87500000  0.50000000  1
  Ti  Ti4073  1  0.93750000  0.87500000  0.56250000  1
  V  V4074  1  0.93750000  0.87500000  0.62500000  1
  Ti  Ti4075  1  0.93750000  0.87500000  0.68750000  1
  V  V4076  1  0.93750000  0.87500000  0.75000000  1
  Ti  Ti4077  1  0.93750000  0.87500000  0.81250000  1
  V  V4078  1  0.93750000  0.87500000  0.87500000  1
  Ti  Ti4079  1  0.93750000  0.87500000  0.93750000  1
  Cr  Cr4080  1  0.93750000  0.93750000  0.00000000  1
  V  V4081  1  0.93750000  0.93750000  0.06250000  1
  Ti  Ti4082  1  0.93750000  0.93750000  0.12500000  1
  V  V4083  1  0.93750000  0.93750000  0.18750000  1
  Ti  Ti4084  1  0.93750000  0.93750000  0.25000000  1
  V  V4085  1  0.93750000  0.93750000  0.31250000  1
  Ti  Ti4086  1  0.93750000  0.93750000  0.37500000  1
  V  V4087  1  0.93750000  0.93750000  0.43750000  1
  Ti  Ti4088  1  0.93750000  0.93750000  0.50000000  1
  V  V4089  1  0.93750000  0.93750000  0.56250000  1
  Cr  Cr4090  1  0.93750000  0.93750000  0.62500000  1
  V  V4091  1  0.93750000  0.93750000  0.68750000  1
  Cr  Cr4092  1  0.93750000  0.93750000  0.75000000  1
  V  V4093  1  0.93750000  0.93750000  0.81250000  1
  Ti  Ti4094  1  0.93750000  0.93750000  0.87500000  1
  V  V4095  1  0.93750000  0.93750000  0.93750000  1
