# generated using pymatgen
data_Ti1229V2478Cr389
_symmetry_space_group_name_H-M   'P 1'
_cell_length_a   41.70778345
_cell_length_b   41.70778345
_cell_length_c   41.70778345
_cell_angle_alpha   109.47122063
_cell_angle_beta   109.47122063
_cell_angle_gamma   109.47122063
_symmetry_Int_Tables_number   1
_chemical_formula_structural   Ti1229V2478Cr389
_chemical_formula_sum   'Ti1229 V2478 Cr389'
_cell_volume   55850.80524800
_cell_formula_units_Z   1
loop_
 _symmetry_equiv_pos_site_id
 _symmetry_equiv_pos_as_xyz
  1  'x, y, z'
loop_
 _atom_site_type_symbol
 _atom_site_label
 _atom_site_symmetry_multiplicity
 _atom_site_fract_x
 _atom_site_fract_y
 _atom_site_fract_z
 _atom_site_occupancy
  V  V0  1  0.00000000  0.00000000  0.00000000  1
  Cr  Cr1  1  0.00000000  0.00000000  0.06250000  1
  V  V2  1  0.00000000  0.00000000  0.12500000  1
  V  V3  1  0.00000000  0.00000000  0.18750000  1
  V  V4  1  0.00000000  0.00000000  0.25000000  1
  V  V5  1  0.00000000  0.00000000  0.31250000  1
  V  V6  1  0.00000000  0.00000000  0.37500000  1
  V  V7  1  0.00000000  0.00000000  0.43750000  1
  Cr  Cr8  1  0.00000000  0.00000000  0.50000000  1
  Cr  Cr9  1  0.00000000  0.00000000  0.56250000  1
  V  V10  1  0.00000000  0.00000000  0.62500000  1
  V  V11  1  0.00000000  0.00000000  0.68750000  1
  V  V12  1  0.00000000  0.00000000  0.75000000  1
  V  V13  1  0.00000000  0.00000000  0.81250000  1
  V  V14  1  0.00000000  0.00000000  0.87500000  1
  V  V15  1  0.00000000  0.00000000  0.93750000  1
  Ti  Ti16  1  0.00000000  0.06250000  0.00000000  1
  Ti  Ti17  1  0.00000000  0.06250000  0.06250000  1
  V  V18  1  0.00000000  0.06250000  0.12500000  1
  V  V19  1  0.00000000  0.06250000  0.18750000  1
  Ti  Ti20  1  0.00000000  0.06250000  0.25000000  1
  Ti  Ti21  1  0.00000000  0.06250000  0.31250000  1
  V  V22  1  0.00000000  0.06250000  0.37500000  1
  V  V23  1  0.00000000  0.06250000  0.43750000  1
  Ti  Ti24  1  0.00000000  0.06250000  0.50000000  1
  V  V25  1  0.00000000  0.06250000  0.56250000  1
  V  V26  1  0.00000000  0.06250000  0.62500000  1
  V  V27  1  0.00000000  0.06250000  0.68750000  1
  Ti  Ti28  1  0.00000000  0.06250000  0.75000000  1
  Ti  Ti29  1  0.00000000  0.06250000  0.81250000  1
  V  V30  1  0.00000000  0.06250000  0.87500000  1
  V  V31  1  0.00000000  0.06250000  0.93750000  1
  V  V32  1  0.00000000  0.12500000  0.00000000  1
  Cr  Cr33  1  0.00000000  0.12500000  0.06250000  1
  Ti  Ti34  1  0.00000000  0.12500000  0.12500000  1
  V  V35  1  0.00000000  0.12500000  0.18750000  1
  V  V36  1  0.00000000  0.12500000  0.25000000  1
  V  V37  1  0.00000000  0.12500000  0.31250000  1
  V  V38  1  0.00000000  0.12500000  0.37500000  1
  V  V39  1  0.00000000  0.12500000  0.43750000  1
  V  V40  1  0.00000000  0.12500000  0.50000000  1
  V  V41  1  0.00000000  0.12500000  0.56250000  1
  Ti  Ti42  1  0.00000000  0.12500000  0.62500000  1
  V  V43  1  0.00000000  0.12500000  0.68750000  1
  V  V44  1  0.00000000  0.12500000  0.75000000  1
  Ti  Ti45  1  0.00000000  0.12500000  0.81250000  1
  V  V46  1  0.00000000  0.12500000  0.87500000  1
  Cr  Cr47  1  0.00000000  0.12500000  0.93750000  1
  V  V48  1  0.00000000  0.18750000  0.00000000  1
  V  V49  1  0.00000000  0.18750000  0.06250000  1
  V  V50  1  0.00000000  0.18750000  0.12500000  1
  V  V51  1  0.00000000  0.18750000  0.18750000  1
  V  V52  1  0.00000000  0.18750000  0.25000000  1
  V  V53  1  0.00000000  0.18750000  0.31250000  1
  Cr  Cr54  1  0.00000000  0.18750000  0.37500000  1
  Ti  Ti55  1  0.00000000  0.18750000  0.43750000  1
  V  V56  1  0.00000000  0.18750000  0.50000000  1
  Ti  Ti57  1  0.00000000  0.18750000  0.56250000  1
  Ti  Ti58  1  0.00000000  0.18750000  0.62500000  1
  Ti  Ti59  1  0.00000000  0.18750000  0.68750000  1
  Ti  Ti60  1  0.00000000  0.18750000  0.75000000  1
  V  V61  1  0.00000000  0.18750000  0.81250000  1
  V  V62  1  0.00000000  0.18750000  0.87500000  1
  V  V63  1  0.00000000  0.18750000  0.93750000  1
  V  V64  1  0.00000000  0.25000000  0.00000000  1
  V  V65  1  0.00000000  0.25000000  0.06250000  1
  Cr  Cr66  1  0.00000000  0.25000000  0.12500000  1
  V  V67  1  0.00000000  0.25000000  0.18750000  1
  Ti  Ti68  1  0.00000000  0.25000000  0.25000000  1
  V  V69  1  0.00000000  0.25000000  0.31250000  1
  V  V70  1  0.00000000  0.25000000  0.37500000  1
  Ti  Ti71  1  0.00000000  0.25000000  0.43750000  1
  Ti  Ti72  1  0.00000000  0.25000000  0.50000000  1
  Cr  Cr73  1  0.00000000  0.25000000  0.56250000  1
  V  V74  1  0.00000000  0.25000000  0.62500000  1
  Cr  Cr75  1  0.00000000  0.25000000  0.68750000  1
  V  V76  1  0.00000000  0.25000000  0.75000000  1
  Cr  Cr77  1  0.00000000  0.25000000  0.81250000  1
  V  V78  1  0.00000000  0.25000000  0.87500000  1
  V  V79  1  0.00000000  0.25000000  0.93750000  1
  V  V80  1  0.00000000  0.31250000  0.00000000  1
  Cr  Cr81  1  0.00000000  0.31250000  0.06250000  1
  Ti  Ti82  1  0.00000000  0.31250000  0.12500000  1
  V  V83  1  0.00000000  0.31250000  0.18750000  1
  V  V84  1  0.00000000  0.31250000  0.25000000  1
  V  V85  1  0.00000000  0.31250000  0.31250000  1
  V  V86  1  0.00000000  0.31250000  0.37500000  1
  V  V87  1  0.00000000  0.31250000  0.43750000  1
  Ti  Ti88  1  0.00000000  0.31250000  0.50000000  1
  V  V89  1  0.00000000  0.31250000  0.56250000  1
  Cr  Cr90  1  0.00000000  0.31250000  0.62500000  1
  V  V91  1  0.00000000  0.31250000  0.68750000  1
  Ti  Ti92  1  0.00000000  0.31250000  0.75000000  1
  V  V93  1  0.00000000  0.31250000  0.81250000  1
  Cr  Cr94  1  0.00000000  0.31250000  0.87500000  1
  V  V95  1  0.00000000  0.31250000  0.93750000  1
  V  V96  1  0.00000000  0.37500000  0.00000000  1
  V  V97  1  0.00000000  0.37500000  0.06250000  1
  V  V98  1  0.00000000  0.37500000  0.12500000  1
  Cr  Cr99  1  0.00000000  0.37500000  0.18750000  1
  Cr  Cr100  1  0.00000000  0.37500000  0.25000000  1
  V  V101  1  0.00000000  0.37500000  0.31250000  1
  V  V102  1  0.00000000  0.37500000  0.37500000  1
  Ti  Ti103  1  0.00000000  0.37500000  0.43750000  1
  Ti  Ti104  1  0.00000000  0.37500000  0.50000000  1
  Cr  Cr105  1  0.00000000  0.37500000  0.56250000  1
  V  V106  1  0.00000000  0.37500000  0.62500000  1
  Ti  Ti107  1  0.00000000  0.37500000  0.68750000  1
  V  V108  1  0.00000000  0.37500000  0.75000000  1
  V  V109  1  0.00000000  0.37500000  0.81250000  1
  V  V110  1  0.00000000  0.37500000  0.87500000  1
  Ti  Ti111  1  0.00000000  0.37500000  0.93750000  1
  V  V112  1  0.00000000  0.43750000  0.00000000  1
  V  V113  1  0.00000000  0.43750000  0.06250000  1
  V  V114  1  0.00000000  0.43750000  0.12500000  1
  V  V115  1  0.00000000  0.43750000  0.18750000  1
  V  V116  1  0.00000000  0.43750000  0.25000000  1
  V  V117  1  0.00000000  0.43750000  0.31250000  1
  Ti  Ti118  1  0.00000000  0.43750000  0.37500000  1
  Ti  Ti119  1  0.00000000  0.43750000  0.43750000  1
  V  V120  1  0.00000000  0.43750000  0.50000000  1
  V  V121  1  0.00000000  0.43750000  0.56250000  1
  V  V122  1  0.00000000  0.43750000  0.62500000  1
  V  V123  1  0.00000000  0.43750000  0.68750000  1
  Ti  Ti124  1  0.00000000  0.43750000  0.75000000  1
  V  V125  1  0.00000000  0.43750000  0.81250000  1
  V  V126  1  0.00000000  0.43750000  0.87500000  1
  V  V127  1  0.00000000  0.43750000  0.93750000  1
  Ti  Ti128  1  0.00000000  0.50000000  0.00000000  1
  V  V129  1  0.00000000  0.50000000  0.06250000  1
  V  V130  1  0.00000000  0.50000000  0.12500000  1
  Cr  Cr131  1  0.00000000  0.50000000  0.18750000  1
  V  V132  1  0.00000000  0.50000000  0.25000000  1
  V  V133  1  0.00000000  0.50000000  0.31250000  1
  Ti  Ti134  1  0.00000000  0.50000000  0.37500000  1
  Cr  Cr135  1  0.00000000  0.50000000  0.43750000  1
  V  V136  1  0.00000000  0.50000000  0.50000000  1
  V  V137  1  0.00000000  0.50000000  0.56250000  1
  Ti  Ti138  1  0.00000000  0.50000000  0.62500000  1
  Cr  Cr139  1  0.00000000  0.50000000  0.68750000  1
  V  V140  1  0.00000000  0.50000000  0.75000000  1
  V  V141  1  0.00000000  0.50000000  0.81250000  1
  V  V142  1  0.00000000  0.50000000  0.87500000  1
  V  V143  1  0.00000000  0.50000000  0.93750000  1
  Ti  Ti144  1  0.00000000  0.56250000  0.00000000  1
  V  V145  1  0.00000000  0.56250000  0.06250000  1
  Ti  Ti146  1  0.00000000  0.56250000  0.12500000  1
  V  V147  1  0.00000000  0.56250000  0.18750000  1
  Cr  Cr148  1  0.00000000  0.56250000  0.25000000  1
  Ti  Ti149  1  0.00000000  0.56250000  0.31250000  1
  Ti  Ti150  1  0.00000000  0.56250000  0.37500000  1
  V  V151  1  0.00000000  0.56250000  0.43750000  1
  V  V152  1  0.00000000  0.56250000  0.50000000  1
  V  V153  1  0.00000000  0.56250000  0.56250000  1
  V  V154  1  0.00000000  0.56250000  0.62500000  1
  Cr  Cr155  1  0.00000000  0.56250000  0.68750000  1
  V  V156  1  0.00000000  0.56250000  0.75000000  1
  V  V157  1  0.00000000  0.56250000  0.81250000  1
  V  V158  1  0.00000000  0.56250000  0.87500000  1
  Ti  Ti159  1  0.00000000  0.56250000  0.93750000  1
  Cr  Cr160  1  0.00000000  0.62500000  0.00000000  1
  Ti  Ti161  1  0.00000000  0.62500000  0.06250000  1
  Ti  Ti162  1  0.00000000  0.62500000  0.12500000  1
  Ti  Ti163  1  0.00000000  0.62500000  0.18750000  1
  V  V164  1  0.00000000  0.62500000  0.25000000  1
  V  V165  1  0.00000000  0.62500000  0.31250000  1
  V  V166  1  0.00000000  0.62500000  0.37500000  1
  V  V167  1  0.00000000  0.62500000  0.43750000  1
  Ti  Ti168  1  0.00000000  0.62500000  0.50000000  1
  Ti  Ti169  1  0.00000000  0.62500000  0.56250000  1
  V  V170  1  0.00000000  0.62500000  0.62500000  1
  V  V171  1  0.00000000  0.62500000  0.68750000  1
  V  V172  1  0.00000000  0.62500000  0.75000000  1
  V  V173  1  0.00000000  0.62500000  0.81250000  1
  V  V174  1  0.00000000  0.62500000  0.87500000  1
  Ti  Ti175  1  0.00000000  0.62500000  0.93750000  1
  Cr  Cr176  1  0.00000000  0.68750000  0.00000000  1
  Ti  Ti177  1  0.00000000  0.68750000  0.06250000  1
  Ti  Ti178  1  0.00000000  0.68750000  0.12500000  1
  Ti  Ti179  1  0.00000000  0.68750000  0.18750000  1
  V  V180  1  0.00000000  0.68750000  0.25000000  1
  Cr  Cr181  1  0.00000000  0.68750000  0.31250000  1
  Ti  Ti182  1  0.00000000  0.68750000  0.37500000  1
  V  V183  1  0.00000000  0.68750000  0.43750000  1
  V  V184  1  0.00000000  0.68750000  0.50000000  1
  Ti  Ti185  1  0.00000000  0.68750000  0.56250000  1
  V  V186  1  0.00000000  0.68750000  0.62500000  1
  V  V187  1  0.00000000  0.68750000  0.68750000  1
  Ti  Ti188  1  0.00000000  0.68750000  0.75000000  1
  V  V189  1  0.00000000  0.68750000  0.81250000  1
  V  V190  1  0.00000000  0.68750000  0.87500000  1
  Ti  Ti191  1  0.00000000  0.68750000  0.93750000  1
  V  V192  1  0.00000000  0.75000000  0.00000000  1
  V  V193  1  0.00000000  0.75000000  0.06250000  1
  Cr  Cr194  1  0.00000000  0.75000000  0.12500000  1
  V  V195  1  0.00000000  0.75000000  0.18750000  1
  V  V196  1  0.00000000  0.75000000  0.25000000  1
  Ti  Ti197  1  0.00000000  0.75000000  0.31250000  1
  V  V198  1  0.00000000  0.75000000  0.37500000  1
  Ti  Ti199  1  0.00000000  0.75000000  0.43750000  1
  V  V200  1  0.00000000  0.75000000  0.50000000  1
  V  V201  1  0.00000000  0.75000000  0.56250000  1
  V  V202  1  0.00000000  0.75000000  0.62500000  1
  V  V203  1  0.00000000  0.75000000  0.68750000  1
  V  V204  1  0.00000000  0.75000000  0.75000000  1
  Ti  Ti205  1  0.00000000  0.75000000  0.81250000  1
  V  V206  1  0.00000000  0.75000000  0.87500000  1
  V  V207  1  0.00000000  0.75000000  0.93750000  1
  V  V208  1  0.00000000  0.81250000  0.00000000  1
  V  V209  1  0.00000000  0.81250000  0.06250000  1
  Ti  Ti210  1  0.00000000  0.81250000  0.12500000  1
  V  V211  1  0.00000000  0.81250000  0.18750000  1
  V  V212  1  0.00000000  0.81250000  0.25000000  1
  Ti  Ti213  1  0.00000000  0.81250000  0.31250000  1
  V  V214  1  0.00000000  0.81250000  0.37500000  1
  V  V215  1  0.00000000  0.81250000  0.43750000  1
  Ti  Ti216  1  0.00000000  0.81250000  0.50000000  1
  Ti  Ti217  1  0.00000000  0.81250000  0.56250000  1
  V  V218  1  0.00000000  0.81250000  0.62500000  1
  V  V219  1  0.00000000  0.81250000  0.68750000  1
  Ti  Ti220  1  0.00000000  0.81250000  0.75000000  1
  V  V221  1  0.00000000  0.81250000  0.81250000  1
  V  V222  1  0.00000000  0.81250000  0.87500000  1
  V  V223  1  0.00000000  0.81250000  0.93750000  1
  Ti  Ti224  1  0.00000000  0.87500000  0.00000000  1
  Ti  Ti225  1  0.00000000  0.87500000  0.06250000  1
  V  V226  1  0.00000000  0.87500000  0.12500000  1
  V  V227  1  0.00000000  0.87500000  0.18750000  1
  V  V228  1  0.00000000  0.87500000  0.25000000  1
  V  V229  1  0.00000000  0.87500000  0.31250000  1
  V  V230  1  0.00000000  0.87500000  0.37500000  1
  Cr  Cr231  1  0.00000000  0.87500000  0.43750000  1
  Ti  Ti232  1  0.00000000  0.87500000  0.50000000  1
  V  V233  1  0.00000000  0.87500000  0.56250000  1
  V  V234  1  0.00000000  0.87500000  0.62500000  1
  Cr  Cr235  1  0.00000000  0.87500000  0.68750000  1
  V  V236  1  0.00000000  0.87500000  0.75000000  1
  Ti  Ti237  1  0.00000000  0.87500000  0.81250000  1
  Cr  Cr238  1  0.00000000  0.87500000  0.87500000  1
  V  V239  1  0.00000000  0.87500000  0.93750000  1
  V  V240  1  0.00000000  0.93750000  0.00000000  1
  V  V241  1  0.00000000  0.93750000  0.06250000  1
  V  V242  1  0.00000000  0.93750000  0.12500000  1
  V  V243  1  0.00000000  0.93750000  0.18750000  1
  Ti  Ti244  1  0.00000000  0.93750000  0.25000000  1
  V  V245  1  0.00000000  0.93750000  0.31250000  1
  V  V246  1  0.00000000  0.93750000  0.37500000  1
  Ti  Ti247  1  0.00000000  0.93750000  0.43750000  1
  V  V248  1  0.00000000  0.93750000  0.50000000  1
  V  V249  1  0.00000000  0.93750000  0.56250000  1
  V  V250  1  0.00000000  0.93750000  0.62500000  1
  Ti  Ti251  1  0.00000000  0.93750000  0.68750000  1
  V  V252  1  0.00000000  0.93750000  0.75000000  1
  V  V253  1  0.00000000  0.93750000  0.81250000  1
  V  V254  1  0.00000000  0.93750000  0.87500000  1
  Ti  Ti255  1  0.00000000  0.93750000  0.93750000  1
  V  V256  1  0.06250000  0.00000000  0.00000000  1
  V  V257  1  0.06250000  0.00000000  0.06250000  1
  V  V258  1  0.06250000  0.00000000  0.12500000  1
  Ti  Ti259  1  0.06250000  0.00000000  0.18750000  1
  Ti  Ti260  1  0.06250000  0.00000000  0.25000000  1
  V  V261  1  0.06250000  0.00000000  0.31250000  1
  Ti  Ti262  1  0.06250000  0.00000000  0.37500000  1
  V  V263  1  0.06250000  0.00000000  0.43750000  1
  Ti  Ti264  1  0.06250000  0.00000000  0.50000000  1
  Cr  Cr265  1  0.06250000  0.00000000  0.56250000  1
  V  V266  1  0.06250000  0.00000000  0.62500000  1
  Ti  Ti267  1  0.06250000  0.00000000  0.68750000  1
  Ti  Ti268  1  0.06250000  0.00000000  0.75000000  1
  Cr  Cr269  1  0.06250000  0.00000000  0.81250000  1
  Ti  Ti270  1  0.06250000  0.00000000  0.87500000  1
  Ti  Ti271  1  0.06250000  0.00000000  0.93750000  1
  V  V272  1  0.06250000  0.06250000  0.00000000  1
  Ti  Ti273  1  0.06250000  0.06250000  0.06250000  1
  V  V274  1  0.06250000  0.06250000  0.12500000  1
  V  V275  1  0.06250000  0.06250000  0.18750000  1
  Ti  Ti276  1  0.06250000  0.06250000  0.25000000  1
  V  V277  1  0.06250000  0.06250000  0.31250000  1
  Ti  Ti278  1  0.06250000  0.06250000  0.37500000  1
  V  V279  1  0.06250000  0.06250000  0.43750000  1
  Ti  Ti280  1  0.06250000  0.06250000  0.50000000  1
  V  V281  1  0.06250000  0.06250000  0.56250000  1
  V  V282  1  0.06250000  0.06250000  0.62500000  1
  V  V283  1  0.06250000  0.06250000  0.68750000  1
  V  V284  1  0.06250000  0.06250000  0.75000000  1
  V  V285  1  0.06250000  0.06250000  0.81250000  1
  V  V286  1  0.06250000  0.06250000  0.87500000  1
  Ti  Ti287  1  0.06250000  0.06250000  0.93750000  1
  V  V288  1  0.06250000  0.12500000  0.00000000  1
  V  V289  1  0.06250000  0.12500000  0.06250000  1
  V  V290  1  0.06250000  0.12500000  0.12500000  1
  V  V291  1  0.06250000  0.12500000  0.18750000  1
  V  V292  1  0.06250000  0.12500000  0.25000000  1
  Ti  Ti293  1  0.06250000  0.12500000  0.31250000  1
  Ti  Ti294  1  0.06250000  0.12500000  0.37500000  1
  V  V295  1  0.06250000  0.12500000  0.43750000  1
  V  V296  1  0.06250000  0.12500000  0.50000000  1
  Ti  Ti297  1  0.06250000  0.12500000  0.56250000  1
  V  V298  1  0.06250000  0.12500000  0.62500000  1
  Ti  Ti299  1  0.06250000  0.12500000  0.68750000  1
  Ti  Ti300  1  0.06250000  0.12500000  0.75000000  1
  V  V301  1  0.06250000  0.12500000  0.81250000  1
  Ti  Ti302  1  0.06250000  0.12500000  0.87500000  1
  V  V303  1  0.06250000  0.12500000  0.93750000  1
  V  V304  1  0.06250000  0.18750000  0.00000000  1
  V  V305  1  0.06250000  0.18750000  0.06250000  1
  Ti  Ti306  1  0.06250000  0.18750000  0.12500000  1
  Cr  Cr307  1  0.06250000  0.18750000  0.18750000  1
  V  V308  1  0.06250000  0.18750000  0.25000000  1
  Cr  Cr309  1  0.06250000  0.18750000  0.31250000  1
  Ti  Ti310  1  0.06250000  0.18750000  0.37500000  1
  V  V311  1  0.06250000  0.18750000  0.43750000  1
  Ti  Ti312  1  0.06250000  0.18750000  0.50000000  1
  V  V313  1  0.06250000  0.18750000  0.56250000  1
  V  V314  1  0.06250000  0.18750000  0.62500000  1
  Ti  Ti315  1  0.06250000  0.18750000  0.68750000  1
  Cr  Cr316  1  0.06250000  0.18750000  0.75000000  1
  Ti  Ti317  1  0.06250000  0.18750000  0.81250000  1
  V  V318  1  0.06250000  0.18750000  0.87500000  1
  V  V319  1  0.06250000  0.18750000  0.93750000  1
  Ti  Ti320  1  0.06250000  0.25000000  0.00000000  1
  Ti  Ti321  1  0.06250000  0.25000000  0.06250000  1
  Ti  Ti322  1  0.06250000  0.25000000  0.12500000  1
  Ti  Ti323  1  0.06250000  0.25000000  0.18750000  1
  V  V324  1  0.06250000  0.25000000  0.25000000  1
  V  V325  1  0.06250000  0.25000000  0.31250000  1
  V  V326  1  0.06250000  0.25000000  0.37500000  1
  V  V327  1  0.06250000  0.25000000  0.43750000  1
  V  V328  1  0.06250000  0.25000000  0.50000000  1
  V  V329  1  0.06250000  0.25000000  0.56250000  1
  V  V330  1  0.06250000  0.25000000  0.62500000  1
  V  V331  1  0.06250000  0.25000000  0.68750000  1
  V  V332  1  0.06250000  0.25000000  0.75000000  1
  Ti  Ti333  1  0.06250000  0.25000000  0.81250000  1
  V  V334  1  0.06250000  0.25000000  0.87500000  1
  Ti  Ti335  1  0.06250000  0.25000000  0.93750000  1
  Ti  Ti336  1  0.06250000  0.31250000  0.00000000  1
  V  V337  1  0.06250000  0.31250000  0.06250000  1
  V  V338  1  0.06250000  0.31250000  0.12500000  1
  Ti  Ti339  1  0.06250000  0.31250000  0.18750000  1
  Cr  Cr340  1  0.06250000  0.31250000  0.25000000  1
  Cr  Cr341  1  0.06250000  0.31250000  0.31250000  1
  Ti  Ti342  1  0.06250000  0.31250000  0.37500000  1
  V  V343  1  0.06250000  0.31250000  0.43750000  1
  Ti  Ti344  1  0.06250000  0.31250000  0.50000000  1
  V  V345  1  0.06250000  0.31250000  0.56250000  1
  Ti  Ti346  1  0.06250000  0.31250000  0.62500000  1
  V  V347  1  0.06250000  0.31250000  0.68750000  1
  V  V348  1  0.06250000  0.31250000  0.75000000  1
  Ti  Ti349  1  0.06250000  0.31250000  0.81250000  1
  Ti  Ti350  1  0.06250000  0.31250000  0.87500000  1
  V  V351  1  0.06250000  0.31250000  0.93750000  1
  Ti  Ti352  1  0.06250000  0.37500000  0.00000000  1
  V  V353  1  0.06250000  0.37500000  0.06250000  1
  V  V354  1  0.06250000  0.37500000  0.12500000  1
  V  V355  1  0.06250000  0.37500000  0.18750000  1
  Ti  Ti356  1  0.06250000  0.37500000  0.25000000  1
  V  V357  1  0.06250000  0.37500000  0.31250000  1
  Cr  Cr358  1  0.06250000  0.37500000  0.37500000  1
  V  V359  1  0.06250000  0.37500000  0.43750000  1
  V  V360  1  0.06250000  0.37500000  0.50000000  1
  Ti  Ti361  1  0.06250000  0.37500000  0.56250000  1
  Cr  Cr362  1  0.06250000  0.37500000  0.62500000  1
  V  V363  1  0.06250000  0.37500000  0.68750000  1
  V  V364  1  0.06250000  0.37500000  0.75000000  1
  Ti  Ti365  1  0.06250000  0.37500000  0.81250000  1
  Ti  Ti366  1  0.06250000  0.37500000  0.87500000  1
  V  V367  1  0.06250000  0.37500000  0.93750000  1
  Ti  Ti368  1  0.06250000  0.43750000  0.00000000  1
  V  V369  1  0.06250000  0.43750000  0.06250000  1
  V  V370  1  0.06250000  0.43750000  0.12500000  1
  V  V371  1  0.06250000  0.43750000  0.18750000  1
  V  V372  1  0.06250000  0.43750000  0.25000000  1
  V  V373  1  0.06250000  0.43750000  0.31250000  1
  Ti  Ti374  1  0.06250000  0.43750000  0.37500000  1
  Ti  Ti375  1  0.06250000  0.43750000  0.43750000  1
  V  V376  1  0.06250000  0.43750000  0.50000000  1
  V  V377  1  0.06250000  0.43750000  0.56250000  1
  Ti  Ti378  1  0.06250000  0.43750000  0.62500000  1
  V  V379  1  0.06250000  0.43750000  0.68750000  1
  V  V380  1  0.06250000  0.43750000  0.75000000  1
  Ti  Ti381  1  0.06250000  0.43750000  0.81250000  1
  Ti  Ti382  1  0.06250000  0.43750000  0.87500000  1
  Ti  Ti383  1  0.06250000  0.43750000  0.93750000  1
  V  V384  1  0.06250000  0.50000000  0.00000000  1
  V  V385  1  0.06250000  0.50000000  0.06250000  1
  V  V386  1  0.06250000  0.50000000  0.12500000  1
  V  V387  1  0.06250000  0.50000000  0.18750000  1
  V  V388  1  0.06250000  0.50000000  0.25000000  1
  V  V389  1  0.06250000  0.50000000  0.31250000  1
  V  V390  1  0.06250000  0.50000000  0.37500000  1
  V  V391  1  0.06250000  0.50000000  0.43750000  1
  Ti  Ti392  1  0.06250000  0.50000000  0.50000000  1
  Ti  Ti393  1  0.06250000  0.50000000  0.56250000  1
  V  V394  1  0.06250000  0.50000000  0.62500000  1
  V  V395  1  0.06250000  0.50000000  0.68750000  1
  V  V396  1  0.06250000  0.50000000  0.75000000  1
  V  V397  1  0.06250000  0.50000000  0.81250000  1
  V  V398  1  0.06250000  0.50000000  0.87500000  1
  Ti  Ti399  1  0.06250000  0.50000000  0.93750000  1
  Ti  Ti400  1  0.06250000  0.56250000  0.00000000  1
  V  V401  1  0.06250000  0.56250000  0.06250000  1
  V  V402  1  0.06250000  0.56250000  0.12500000  1
  V  V403  1  0.06250000  0.56250000  0.18750000  1
  V  V404  1  0.06250000  0.56250000  0.25000000  1
  V  V405  1  0.06250000  0.56250000  0.31250000  1
  Cr  Cr406  1  0.06250000  0.56250000  0.37500000  1
  V  V407  1  0.06250000  0.56250000  0.43750000  1
  Ti  Ti408  1  0.06250000  0.56250000  0.50000000  1
  V  V409  1  0.06250000  0.56250000  0.56250000  1
  V  V410  1  0.06250000  0.56250000  0.62500000  1
  V  V411  1  0.06250000  0.56250000  0.68750000  1
  V  V412  1  0.06250000  0.56250000  0.75000000  1
  V  V413  1  0.06250000  0.56250000  0.81250000  1
  Ti  Ti414  1  0.06250000  0.56250000  0.87500000  1
  V  V415  1  0.06250000  0.56250000  0.93750000  1
  V  V416  1  0.06250000  0.62500000  0.00000000  1
  Ti  Ti417  1  0.06250000  0.62500000  0.06250000  1
  V  V418  1  0.06250000  0.62500000  0.12500000  1
  V  V419  1  0.06250000  0.62500000  0.18750000  1
  Ti  Ti420  1  0.06250000  0.62500000  0.25000000  1
  V  V421  1  0.06250000  0.62500000  0.31250000  1
  V  V422  1  0.06250000  0.62500000  0.37500000  1
  Ti  Ti423  1  0.06250000  0.62500000  0.43750000  1
  V  V424  1  0.06250000  0.62500000  0.50000000  1
  Ti  Ti425  1  0.06250000  0.62500000  0.56250000  1
  V  V426  1  0.06250000  0.62500000  0.62500000  1
  V  V427  1  0.06250000  0.62500000  0.68750000  1
  V  V428  1  0.06250000  0.62500000  0.75000000  1
  Ti  Ti429  1  0.06250000  0.62500000  0.81250000  1
  V  V430  1  0.06250000  0.62500000  0.87500000  1
  Ti  Ti431  1  0.06250000  0.62500000  0.93750000  1
  Ti  Ti432  1  0.06250000  0.68750000  0.00000000  1
  V  V433  1  0.06250000  0.68750000  0.06250000  1
  V  V434  1  0.06250000  0.68750000  0.12500000  1
  Ti  Ti435  1  0.06250000  0.68750000  0.18750000  1
  V  V436  1  0.06250000  0.68750000  0.25000000  1
  Ti  Ti437  1  0.06250000  0.68750000  0.31250000  1
  V  V438  1  0.06250000  0.68750000  0.37500000  1
  Ti  Ti439  1  0.06250000  0.68750000  0.43750000  1
  V  V440  1  0.06250000  0.68750000  0.50000000  1
  Cr  Cr441  1  0.06250000  0.68750000  0.56250000  1
  V  V442  1  0.06250000  0.68750000  0.62500000  1
  V  V443  1  0.06250000  0.68750000  0.68750000  1
  V  V444  1  0.06250000  0.68750000  0.75000000  1
  Ti  Ti445  1  0.06250000  0.68750000  0.81250000  1
  V  V446  1  0.06250000  0.68750000  0.87500000  1
  V  V447  1  0.06250000  0.68750000  0.93750000  1
  Ti  Ti448  1  0.06250000  0.75000000  0.00000000  1
  V  V449  1  0.06250000  0.75000000  0.06250000  1
  Ti  Ti450  1  0.06250000  0.75000000  0.12500000  1
  Ti  Ti451  1  0.06250000  0.75000000  0.18750000  1
  V  V452  1  0.06250000  0.75000000  0.25000000  1
  V  V453  1  0.06250000  0.75000000  0.31250000  1
  Ti  Ti454  1  0.06250000  0.75000000  0.37500000  1
  V  V455  1  0.06250000  0.75000000  0.43750000  1
  V  V456  1  0.06250000  0.75000000  0.50000000  1
  V  V457  1  0.06250000  0.75000000  0.56250000  1
  V  V458  1  0.06250000  0.75000000  0.62500000  1
  V  V459  1  0.06250000  0.75000000  0.68750000  1
  V  V460  1  0.06250000  0.75000000  0.75000000  1
  V  V461  1  0.06250000  0.75000000  0.81250000  1
  Ti  Ti462  1  0.06250000  0.75000000  0.87500000  1
  Ti  Ti463  1  0.06250000  0.75000000  0.93750000  1
  Ti  Ti464  1  0.06250000  0.81250000  0.00000000  1
  V  V465  1  0.06250000  0.81250000  0.06250000  1
  V  V466  1  0.06250000  0.81250000  0.12500000  1
  Ti  Ti467  1  0.06250000  0.81250000  0.18750000  1
  Ti  Ti468  1  0.06250000  0.81250000  0.25000000  1
  Cr  Cr469  1  0.06250000  0.81250000  0.31250000  1
  V  V470  1  0.06250000  0.81250000  0.37500000  1
  Ti  Ti471  1  0.06250000  0.81250000  0.43750000  1
  V  V472  1  0.06250000  0.81250000  0.50000000  1
  V  V473  1  0.06250000  0.81250000  0.56250000  1
  Ti  Ti474  1  0.06250000  0.81250000  0.62500000  1
  Ti  Ti475  1  0.06250000  0.81250000  0.68750000  1
  V  V476  1  0.06250000  0.81250000  0.75000000  1
  Cr  Cr477  1  0.06250000  0.81250000  0.81250000  1
  V  V478  1  0.06250000  0.81250000  0.87500000  1
  Cr  Cr479  1  0.06250000  0.81250000  0.93750000  1
  Ti  Ti480  1  0.06250000  0.87500000  0.00000000  1
  V  V481  1  0.06250000  0.87500000  0.06250000  1
  V  V482  1  0.06250000  0.87500000  0.12500000  1
  Ti  Ti483  1  0.06250000  0.87500000  0.18750000  1
  V  V484  1  0.06250000  0.87500000  0.25000000  1
  V  V485  1  0.06250000  0.87500000  0.31250000  1
  V  V486  1  0.06250000  0.87500000  0.37500000  1
  Ti  Ti487  1  0.06250000  0.87500000  0.43750000  1
  Ti  Ti488  1  0.06250000  0.87500000  0.50000000  1
  Cr  Cr489  1  0.06250000  0.87500000  0.56250000  1
  V  V490  1  0.06250000  0.87500000  0.62500000  1
  Ti  Ti491  1  0.06250000  0.87500000  0.68750000  1
  Ti  Ti492  1  0.06250000  0.87500000  0.75000000  1
  Ti  Ti493  1  0.06250000  0.87500000  0.81250000  1
  V  V494  1  0.06250000  0.87500000  0.87500000  1
  V  V495  1  0.06250000  0.87500000  0.93750000  1
  V  V496  1  0.06250000  0.93750000  0.00000000  1
  V  V497  1  0.06250000  0.93750000  0.06250000  1
  V  V498  1  0.06250000  0.93750000  0.12500000  1
  Ti  Ti499  1  0.06250000  0.93750000  0.18750000  1
  V  V500  1  0.06250000  0.93750000  0.25000000  1
  V  V501  1  0.06250000  0.93750000  0.31250000  1
  V  V502  1  0.06250000  0.93750000  0.37500000  1
  Ti  Ti503  1  0.06250000  0.93750000  0.43750000  1
  V  V504  1  0.06250000  0.93750000  0.50000000  1
  V  V505  1  0.06250000  0.93750000  0.56250000  1
  Ti  Ti506  1  0.06250000  0.93750000  0.62500000  1
  Ti  Ti507  1  0.06250000  0.93750000  0.68750000  1
  V  V508  1  0.06250000  0.93750000  0.75000000  1
  V  V509  1  0.06250000  0.93750000  0.81250000  1
  V  V510  1  0.06250000  0.93750000  0.87500000  1
  Ti  Ti511  1  0.06250000  0.93750000  0.93750000  1
  V  V512  1  0.12500000  0.00000000  0.00000000  1
  V  V513  1  0.12500000  0.00000000  0.06250000  1
  V  V514  1  0.12500000  0.00000000  0.12500000  1
  V  V515  1  0.12500000  0.00000000  0.18750000  1
  V  V516  1  0.12500000  0.00000000  0.25000000  1
  V  V517  1  0.12500000  0.00000000  0.31250000  1
  V  V518  1  0.12500000  0.00000000  0.37500000  1
  V  V519  1  0.12500000  0.00000000  0.43750000  1
  V  V520  1  0.12500000  0.00000000  0.50000000  1
  Cr  Cr521  1  0.12500000  0.00000000  0.56250000  1
  Ti  Ti522  1  0.12500000  0.00000000  0.62500000  1
  V  V523  1  0.12500000  0.00000000  0.68750000  1
  V  V524  1  0.12500000  0.00000000  0.75000000  1
  V  V525  1  0.12500000  0.00000000  0.81250000  1
  V  V526  1  0.12500000  0.00000000  0.87500000  1
  Ti  Ti527  1  0.12500000  0.00000000  0.93750000  1
  Cr  Cr528  1  0.12500000  0.06250000  0.00000000  1
  Ti  Ti529  1  0.12500000  0.06250000  0.06250000  1
  Cr  Cr530  1  0.12500000  0.06250000  0.12500000  1
  V  V531  1  0.12500000  0.06250000  0.18750000  1
  V  V532  1  0.12500000  0.06250000  0.25000000  1
  Ti  Ti533  1  0.12500000  0.06250000  0.31250000  1
  Ti  Ti534  1  0.12500000  0.06250000  0.37500000  1
  V  V535  1  0.12500000  0.06250000  0.43750000  1
  V  V536  1  0.12500000  0.06250000  0.50000000  1
  V  V537  1  0.12500000  0.06250000  0.56250000  1
  V  V538  1  0.12500000  0.06250000  0.62500000  1
  V  V539  1  0.12500000  0.06250000  0.68750000  1
  Cr  Cr540  1  0.12500000  0.06250000  0.75000000  1
  V  V541  1  0.12500000  0.06250000  0.81250000  1
  V  V542  1  0.12500000  0.06250000  0.87500000  1
  Cr  Cr543  1  0.12500000  0.06250000  0.93750000  1
  V  V544  1  0.12500000  0.12500000  0.00000000  1
  Ti  Ti545  1  0.12500000  0.12500000  0.06250000  1
  V  V546  1  0.12500000  0.12500000  0.12500000  1
  Ti  Ti547  1  0.12500000  0.12500000  0.18750000  1
  V  V548  1  0.12500000  0.12500000  0.25000000  1
  V  V549  1  0.12500000  0.12500000  0.31250000  1
  Ti  Ti550  1  0.12500000  0.12500000  0.37500000  1
  V  V551  1  0.12500000  0.12500000  0.43750000  1
  V  V552  1  0.12500000  0.12500000  0.50000000  1
  Ti  Ti553  1  0.12500000  0.12500000  0.56250000  1
  V  V554  1  0.12500000  0.12500000  0.62500000  1
  V  V555  1  0.12500000  0.12500000  0.68750000  1
  Ti  Ti556  1  0.12500000  0.12500000  0.75000000  1
  V  V557  1  0.12500000  0.12500000  0.81250000  1
  V  V558  1  0.12500000  0.12500000  0.87500000  1
  Ti  Ti559  1  0.12500000  0.12500000  0.93750000  1
  Ti  Ti560  1  0.12500000  0.18750000  0.00000000  1
  V  V561  1  0.12500000  0.18750000  0.06250000  1
  Ti  Ti562  1  0.12500000  0.18750000  0.12500000  1
  V  V563  1  0.12500000  0.18750000  0.18750000  1
  Ti  Ti564  1  0.12500000  0.18750000  0.25000000  1
  V  V565  1  0.12500000  0.18750000  0.31250000  1
  Ti  Ti566  1  0.12500000  0.18750000  0.37500000  1
  V  V567  1  0.12500000  0.18750000  0.43750000  1
  Ti  Ti568  1  0.12500000  0.18750000  0.50000000  1
  V  V569  1  0.12500000  0.18750000  0.56250000  1
  Ti  Ti570  1  0.12500000  0.18750000  0.62500000  1
  Ti  Ti571  1  0.12500000  0.18750000  0.68750000  1
  Cr  Cr572  1  0.12500000  0.18750000  0.75000000  1
  Cr  Cr573  1  0.12500000  0.18750000  0.81250000  1
  V  V574  1  0.12500000  0.18750000  0.87500000  1
  Cr  Cr575  1  0.12500000  0.18750000  0.93750000  1
  Ti  Ti576  1  0.12500000  0.25000000  0.00000000  1
  Ti  Ti577  1  0.12500000  0.25000000  0.06250000  1
  V  V578  1  0.12500000  0.25000000  0.12500000  1
  V  V579  1  0.12500000  0.25000000  0.18750000  1
  Ti  Ti580  1  0.12500000  0.25000000  0.25000000  1
  Ti  Ti581  1  0.12500000  0.25000000  0.31250000  1
  Ti  Ti582  1  0.12500000  0.25000000  0.37500000  1
  V  V583  1  0.12500000  0.25000000  0.43750000  1
  Ti  Ti584  1  0.12500000  0.25000000  0.50000000  1
  V  V585  1  0.12500000  0.25000000  0.56250000  1
  V  V586  1  0.12500000  0.25000000  0.62500000  1
  Ti  Ti587  1  0.12500000  0.25000000  0.68750000  1
  V  V588  1  0.12500000  0.25000000  0.75000000  1
  V  V589  1  0.12500000  0.25000000  0.81250000  1
  V  V590  1  0.12500000  0.25000000  0.87500000  1
  V  V591  1  0.12500000  0.25000000  0.93750000  1
  V  V592  1  0.12500000  0.31250000  0.00000000  1
  Ti  Ti593  1  0.12500000  0.31250000  0.06250000  1
  V  V594  1  0.12500000  0.31250000  0.12500000  1
  Ti  Ti595  1  0.12500000  0.31250000  0.18750000  1
  V  V596  1  0.12500000  0.31250000  0.25000000  1
  V  V597  1  0.12500000  0.31250000  0.31250000  1
  Ti  Ti598  1  0.12500000  0.31250000  0.37500000  1
  V  V599  1  0.12500000  0.31250000  0.43750000  1
  Ti  Ti600  1  0.12500000  0.31250000  0.50000000  1
  Ti  Ti601  1  0.12500000  0.31250000  0.56250000  1
  V  V602  1  0.12500000  0.31250000  0.62500000  1
  V  V603  1  0.12500000  0.31250000  0.68750000  1
  V  V604  1  0.12500000  0.31250000  0.75000000  1
  Ti  Ti605  1  0.12500000  0.31250000  0.81250000  1
  Cr  Cr606  1  0.12500000  0.31250000  0.87500000  1
  V  V607  1  0.12500000  0.31250000  0.93750000  1
  V  V608  1  0.12500000  0.37500000  0.00000000  1
  V  V609  1  0.12500000  0.37500000  0.06250000  1
  V  V610  1  0.12500000  0.37500000  0.12500000  1
  Ti  Ti611  1  0.12500000  0.37500000  0.18750000  1
  V  V612  1  0.12500000  0.37500000  0.25000000  1
  V  V613  1  0.12500000  0.37500000  0.31250000  1
  V  V614  1  0.12500000  0.37500000  0.37500000  1
  V  V615  1  0.12500000  0.37500000  0.43750000  1
  V  V616  1  0.12500000  0.37500000  0.50000000  1
  V  V617  1  0.12500000  0.37500000  0.56250000  1
  V  V618  1  0.12500000  0.37500000  0.62500000  1
  V  V619  1  0.12500000  0.37500000  0.68750000  1
  V  V620  1  0.12500000  0.37500000  0.75000000  1
  V  V621  1  0.12500000  0.37500000  0.81250000  1
  Ti  Ti622  1  0.12500000  0.37500000  0.87500000  1
  Ti  Ti623  1  0.12500000  0.37500000  0.93750000  1
  Cr  Cr624  1  0.12500000  0.43750000  0.00000000  1
  Ti  Ti625  1  0.12500000  0.43750000  0.06250000  1
  V  V626  1  0.12500000  0.43750000  0.12500000  1
  Cr  Cr627  1  0.12500000  0.43750000  0.18750000  1
  Ti  Ti628  1  0.12500000  0.43750000  0.25000000  1
  Cr  Cr629  1  0.12500000  0.43750000  0.31250000  1
  Ti  Ti630  1  0.12500000  0.43750000  0.37500000  1
  V  V631  1  0.12500000  0.43750000  0.43750000  1
  Ti  Ti632  1  0.12500000  0.43750000  0.50000000  1
  V  V633  1  0.12500000  0.43750000  0.56250000  1
  V  V634  1  0.12500000  0.43750000  0.62500000  1
  V  V635  1  0.12500000  0.43750000  0.68750000  1
  V  V636  1  0.12500000  0.43750000  0.75000000  1
  V  V637  1  0.12500000  0.43750000  0.81250000  1
  Ti  Ti638  1  0.12500000  0.43750000  0.87500000  1
  Cr  Cr639  1  0.12500000  0.43750000  0.93750000  1
  Ti  Ti640  1  0.12500000  0.50000000  0.00000000  1
  Ti  Ti641  1  0.12500000  0.50000000  0.06250000  1
  V  V642  1  0.12500000  0.50000000  0.12500000  1
  V  V643  1  0.12500000  0.50000000  0.18750000  1
  V  V644  1  0.12500000  0.50000000  0.25000000  1
  Ti  Ti645  1  0.12500000  0.50000000  0.31250000  1
  V  V646  1  0.12500000  0.50000000  0.37500000  1
  V  V647  1  0.12500000  0.50000000  0.43750000  1
  V  V648  1  0.12500000  0.50000000  0.50000000  1
  Ti  Ti649  1  0.12500000  0.50000000  0.56250000  1
  V  V650  1  0.12500000  0.50000000  0.62500000  1
  Ti  Ti651  1  0.12500000  0.50000000  0.68750000  1
  V  V652  1  0.12500000  0.50000000  0.75000000  1
  Ti  Ti653  1  0.12500000  0.50000000  0.81250000  1
  Ti  Ti654  1  0.12500000  0.50000000  0.87500000  1
  V  V655  1  0.12500000  0.50000000  0.93750000  1
  V  V656  1  0.12500000  0.56250000  0.00000000  1
  Ti  Ti657  1  0.12500000  0.56250000  0.06250000  1
  Ti  Ti658  1  0.12500000  0.56250000  0.12500000  1
  V  V659  1  0.12500000  0.56250000  0.18750000  1
  V  V660  1  0.12500000  0.56250000  0.25000000  1
  V  V661  1  0.12500000  0.56250000  0.31250000  1
  V  V662  1  0.12500000  0.56250000  0.37500000  1
  V  V663  1  0.12500000  0.56250000  0.43750000  1
  Ti  Ti664  1  0.12500000  0.56250000  0.50000000  1
  V  V665  1  0.12500000  0.56250000  0.56250000  1
  V  V666  1  0.12500000  0.56250000  0.62500000  1
  Ti  Ti667  1  0.12500000  0.56250000  0.68750000  1
  Ti  Ti668  1  0.12500000  0.56250000  0.75000000  1
  V  V669  1  0.12500000  0.56250000  0.81250000  1
  V  V670  1  0.12500000  0.56250000  0.87500000  1
  V  V671  1  0.12500000  0.56250000  0.93750000  1
  Cr  Cr672  1  0.12500000  0.62500000  0.00000000  1
  V  V673  1  0.12500000  0.62500000  0.06250000  1
  Ti  Ti674  1  0.12500000  0.62500000  0.12500000  1
  V  V675  1  0.12500000  0.62500000  0.18750000  1
  V  V676  1  0.12500000  0.62500000  0.25000000  1
  V  V677  1  0.12500000  0.62500000  0.31250000  1
  V  V678  1  0.12500000  0.62500000  0.37500000  1
  Ti  Ti679  1  0.12500000  0.62500000  0.43750000  1
  V  V680  1  0.12500000  0.62500000  0.50000000  1
  V  V681  1  0.12500000  0.62500000  0.56250000  1
  V  V682  1  0.12500000  0.62500000  0.62500000  1
  V  V683  1  0.12500000  0.62500000  0.68750000  1
  V  V684  1  0.12500000  0.62500000  0.75000000  1
  V  V685  1  0.12500000  0.62500000  0.81250000  1
  Cr  Cr686  1  0.12500000  0.62500000  0.87500000  1
  V  V687  1  0.12500000  0.62500000  0.93750000  1
  V  V688  1  0.12500000  0.68750000  0.00000000  1
  V  V689  1  0.12500000  0.68750000  0.06250000  1
  V  V690  1  0.12500000  0.68750000  0.12500000  1
  Ti  Ti691  1  0.12500000  0.68750000  0.18750000  1
  V  V692  1  0.12500000  0.68750000  0.25000000  1
  Ti  Ti693  1  0.12500000  0.68750000  0.31250000  1
  Cr  Cr694  1  0.12500000  0.68750000  0.37500000  1
  Cr  Cr695  1  0.12500000  0.68750000  0.43750000  1
  V  V696  1  0.12500000  0.68750000  0.50000000  1
  V  V697  1  0.12500000  0.68750000  0.56250000  1
  V  V698  1  0.12500000  0.68750000  0.62500000  1
  V  V699  1  0.12500000  0.68750000  0.68750000  1
  V  V700  1  0.12500000  0.68750000  0.75000000  1
  V  V701  1  0.12500000  0.68750000  0.81250000  1
  V  V702  1  0.12500000  0.68750000  0.87500000  1
  Cr  Cr703  1  0.12500000  0.68750000  0.93750000  1
  V  V704  1  0.12500000  0.75000000  0.00000000  1
  Ti  Ti705  1  0.12500000  0.75000000  0.06250000  1
  V  V706  1  0.12500000  0.75000000  0.12500000  1
  Cr  Cr707  1  0.12500000  0.75000000  0.18750000  1
  V  V708  1  0.12500000  0.75000000  0.25000000  1
  V  V709  1  0.12500000  0.75000000  0.31250000  1
  Ti  Ti710  1  0.12500000  0.75000000  0.37500000  1
  V  V711  1  0.12500000  0.75000000  0.43750000  1
  Ti  Ti712  1  0.12500000  0.75000000  0.50000000  1
  V  V713  1  0.12500000  0.75000000  0.56250000  1
  Ti  Ti714  1  0.12500000  0.75000000  0.62500000  1
  V  V715  1  0.12500000  0.75000000  0.68750000  1
  V  V716  1  0.12500000  0.75000000  0.75000000  1
  Ti  Ti717  1  0.12500000  0.75000000  0.81250000  1
  Ti  Ti718  1  0.12500000  0.75000000  0.87500000  1
  V  V719  1  0.12500000  0.75000000  0.93750000  1
  V  V720  1  0.12500000  0.81250000  0.00000000  1
  Ti  Ti721  1  0.12500000  0.81250000  0.06250000  1
  V  V722  1  0.12500000  0.81250000  0.12500000  1
  V  V723  1  0.12500000  0.81250000  0.18750000  1
  V  V724  1  0.12500000  0.81250000  0.25000000  1
  V  V725  1  0.12500000  0.81250000  0.31250000  1
  V  V726  1  0.12500000  0.81250000  0.37500000  1
  V  V727  1  0.12500000  0.81250000  0.43750000  1
  Cr  Cr728  1  0.12500000  0.81250000  0.50000000  1
  Ti  Ti729  1  0.12500000  0.81250000  0.56250000  1
  V  V730  1  0.12500000  0.81250000  0.62500000  1
  V  V731  1  0.12500000  0.81250000  0.68750000  1
  Cr  Cr732  1  0.12500000  0.81250000  0.75000000  1
  Ti  Ti733  1  0.12500000  0.81250000  0.81250000  1
  Ti  Ti734  1  0.12500000  0.81250000  0.87500000  1
  Ti  Ti735  1  0.12500000  0.81250000  0.93750000  1
  V  V736  1  0.12500000  0.87500000  0.00000000  1
  V  V737  1  0.12500000  0.87500000  0.06250000  1
  V  V738  1  0.12500000  0.87500000  0.12500000  1
  V  V739  1  0.12500000  0.87500000  0.18750000  1
  V  V740  1  0.12500000  0.87500000  0.25000000  1
  V  V741  1  0.12500000  0.87500000  0.31250000  1
  V  V742  1  0.12500000  0.87500000  0.37500000  1
  V  V743  1  0.12500000  0.87500000  0.43750000  1
  V  V744  1  0.12500000  0.87500000  0.50000000  1
  V  V745  1  0.12500000  0.87500000  0.56250000  1
  Cr  Cr746  1  0.12500000  0.87500000  0.62500000  1
  V  V747  1  0.12500000  0.87500000  0.68750000  1
  V  V748  1  0.12500000  0.87500000  0.75000000  1
  V  V749  1  0.12500000  0.87500000  0.81250000  1
  Ti  Ti750  1  0.12500000  0.87500000  0.87500000  1
  Ti  Ti751  1  0.12500000  0.87500000  0.93750000  1
  Cr  Cr752  1  0.12500000  0.93750000  0.00000000  1
  Ti  Ti753  1  0.12500000  0.93750000  0.06250000  1
  Ti  Ti754  1  0.12500000  0.93750000  0.12500000  1
  Ti  Ti755  1  0.12500000  0.93750000  0.18750000  1
  V  V756  1  0.12500000  0.93750000  0.25000000  1
  V  V757  1  0.12500000  0.93750000  0.31250000  1
  V  V758  1  0.12500000  0.93750000  0.37500000  1
  V  V759  1  0.12500000  0.93750000  0.43750000  1
  Ti  Ti760  1  0.12500000  0.93750000  0.50000000  1
  Ti  Ti761  1  0.12500000  0.93750000  0.56250000  1
  Cr  Cr762  1  0.12500000  0.93750000  0.62500000  1
  V  V763  1  0.12500000  0.93750000  0.68750000  1
  V  V764  1  0.12500000  0.93750000  0.75000000  1
  V  V765  1  0.12500000  0.93750000  0.81250000  1
  Ti  Ti766  1  0.12500000  0.93750000  0.87500000  1
  V  V767  1  0.12500000  0.93750000  0.93750000  1
  V  V768  1  0.18750000  0.00000000  0.00000000  1
  V  V769  1  0.18750000  0.00000000  0.06250000  1
  V  V770  1  0.18750000  0.00000000  0.12500000  1
  Cr  Cr771  1  0.18750000  0.00000000  0.18750000  1
  V  V772  1  0.18750000  0.00000000  0.25000000  1
  V  V773  1  0.18750000  0.00000000  0.31250000  1
  Ti  Ti774  1  0.18750000  0.00000000  0.37500000  1
  Ti  Ti775  1  0.18750000  0.00000000  0.43750000  1
  Ti  Ti776  1  0.18750000  0.00000000  0.50000000  1
  V  V777  1  0.18750000  0.00000000  0.56250000  1
  V  V778  1  0.18750000  0.00000000  0.62500000  1
  V  V779  1  0.18750000  0.00000000  0.68750000  1
  Ti  Ti780  1  0.18750000  0.00000000  0.75000000  1
  V  V781  1  0.18750000  0.00000000  0.81250000  1
  V  V782  1  0.18750000  0.00000000  0.87500000  1
  Ti  Ti783  1  0.18750000  0.00000000  0.93750000  1
  V  V784  1  0.18750000  0.06250000  0.00000000  1
  V  V785  1  0.18750000  0.06250000  0.06250000  1
  V  V786  1  0.18750000  0.06250000  0.12500000  1
  V  V787  1  0.18750000  0.06250000  0.18750000  1
  V  V788  1  0.18750000  0.06250000  0.25000000  1
  Cr  Cr789  1  0.18750000  0.06250000  0.31250000  1
  Cr  Cr790  1  0.18750000  0.06250000  0.37500000  1
  V  V791  1  0.18750000  0.06250000  0.43750000  1
  Ti  Ti792  1  0.18750000  0.06250000  0.50000000  1
  V  V793  1  0.18750000  0.06250000  0.56250000  1
  V  V794  1  0.18750000  0.06250000  0.62500000  1
  V  V795  1  0.18750000  0.06250000  0.68750000  1
  V  V796  1  0.18750000  0.06250000  0.75000000  1
  Cr  Cr797  1  0.18750000  0.06250000  0.81250000  1
  V  V798  1  0.18750000  0.06250000  0.87500000  1
  Ti  Ti799  1  0.18750000  0.06250000  0.93750000  1
  V  V800  1  0.18750000  0.12500000  0.00000000  1
  V  V801  1  0.18750000  0.12500000  0.06250000  1
  V  V802  1  0.18750000  0.12500000  0.12500000  1
  Ti  Ti803  1  0.18750000  0.12500000  0.18750000  1
  Ti  Ti804  1  0.18750000  0.12500000  0.25000000  1
  Ti  Ti805  1  0.18750000  0.12500000  0.31250000  1
  V  V806  1  0.18750000  0.12500000  0.37500000  1
  V  V807  1  0.18750000  0.12500000  0.43750000  1
  V  V808  1  0.18750000  0.12500000  0.50000000  1
  V  V809  1  0.18750000  0.12500000  0.56250000  1
  Ti  Ti810  1  0.18750000  0.12500000  0.62500000  1
  V  V811  1  0.18750000  0.12500000  0.68750000  1
  Ti  Ti812  1  0.18750000  0.12500000  0.75000000  1
  V  V813  1  0.18750000  0.12500000  0.81250000  1
  V  V814  1  0.18750000  0.12500000  0.87500000  1
  V  V815  1  0.18750000  0.12500000  0.93750000  1
  V  V816  1  0.18750000  0.18750000  0.00000000  1
  Ti  Ti817  1  0.18750000  0.18750000  0.06250000  1
  Cr  Cr818  1  0.18750000  0.18750000  0.12500000  1
  V  V819  1  0.18750000  0.18750000  0.18750000  1
  V  V820  1  0.18750000  0.18750000  0.25000000  1
  V  V821  1  0.18750000  0.18750000  0.31250000  1
  Ti  Ti822  1  0.18750000  0.18750000  0.37500000  1
  Ti  Ti823  1  0.18750000  0.18750000  0.43750000  1
  V  V824  1  0.18750000  0.18750000  0.50000000  1
  Ti  Ti825  1  0.18750000  0.18750000  0.56250000  1
  Ti  Ti826  1  0.18750000  0.18750000  0.62500000  1
  V  V827  1  0.18750000  0.18750000  0.68750000  1
  V  V828  1  0.18750000  0.18750000  0.75000000  1
  Ti  Ti829  1  0.18750000  0.18750000  0.81250000  1
  V  V830  1  0.18750000  0.18750000  0.87500000  1
  V  V831  1  0.18750000  0.18750000  0.93750000  1
  Ti  Ti832  1  0.18750000  0.25000000  0.00000000  1
  Ti  Ti833  1  0.18750000  0.25000000  0.06250000  1
  V  V834  1  0.18750000  0.25000000  0.12500000  1
  Cr  Cr835  1  0.18750000  0.25000000  0.18750000  1
  Ti  Ti836  1  0.18750000  0.25000000  0.25000000  1
  V  V837  1  0.18750000  0.25000000  0.31250000  1
  V  V838  1  0.18750000  0.25000000  0.37500000  1
  V  V839  1  0.18750000  0.25000000  0.43750000  1
  Ti  Ti840  1  0.18750000  0.25000000  0.50000000  1
  Cr  Cr841  1  0.18750000  0.25000000  0.56250000  1
  V  V842  1  0.18750000  0.25000000  0.62500000  1
  Ti  Ti843  1  0.18750000  0.25000000  0.68750000  1
  Cr  Cr844  1  0.18750000  0.25000000  0.75000000  1
  Ti  Ti845  1  0.18750000  0.25000000  0.81250000  1
  V  V846  1  0.18750000  0.25000000  0.87500000  1
  V  V847  1  0.18750000  0.25000000  0.93750000  1
  V  V848  1  0.18750000  0.31250000  0.00000000  1
  Ti  Ti849  1  0.18750000  0.31250000  0.06250000  1
  V  V850  1  0.18750000  0.31250000  0.12500000  1
  V  V851  1  0.18750000  0.31250000  0.18750000  1
  Ti  Ti852  1  0.18750000  0.31250000  0.25000000  1
  Cr  Cr853  1  0.18750000  0.31250000  0.31250000  1
  Ti  Ti854  1  0.18750000  0.31250000  0.37500000  1
  Cr  Cr855  1  0.18750000  0.31250000  0.43750000  1
  Ti  Ti856  1  0.18750000  0.31250000  0.50000000  1
  V  V857  1  0.18750000  0.31250000  0.56250000  1
  V  V858  1  0.18750000  0.31250000  0.62500000  1
  V  V859  1  0.18750000  0.31250000  0.68750000  1
  Cr  Cr860  1  0.18750000  0.31250000  0.75000000  1
  V  V861  1  0.18750000  0.31250000  0.81250000  1
  V  V862  1  0.18750000  0.31250000  0.87500000  1
  Cr  Cr863  1  0.18750000  0.31250000  0.93750000  1
  V  V864  1  0.18750000  0.37500000  0.00000000  1
  V  V865  1  0.18750000  0.37500000  0.06250000  1
  Ti  Ti866  1  0.18750000  0.37500000  0.12500000  1
  V  V867  1  0.18750000  0.37500000  0.18750000  1
  Ti  Ti868  1  0.18750000  0.37500000  0.25000000  1
  V  V869  1  0.18750000  0.37500000  0.31250000  1
  Ti  Ti870  1  0.18750000  0.37500000  0.37500000  1
  V  V871  1  0.18750000  0.37500000  0.43750000  1
  V  V872  1  0.18750000  0.37500000  0.50000000  1
  V  V873  1  0.18750000  0.37500000  0.56250000  1
  V  V874  1  0.18750000  0.37500000  0.62500000  1
  V  V875  1  0.18750000  0.37500000  0.68750000  1
  Cr  Cr876  1  0.18750000  0.37500000  0.75000000  1
  V  V877  1  0.18750000  0.37500000  0.81250000  1
  V  V878  1  0.18750000  0.37500000  0.87500000  1
  V  V879  1  0.18750000  0.37500000  0.93750000  1
  Cr  Cr880  1  0.18750000  0.43750000  0.00000000  1
  V  V881  1  0.18750000  0.43750000  0.06250000  1
  V  V882  1  0.18750000  0.43750000  0.12500000  1
  Cr  Cr883  1  0.18750000  0.43750000  0.18750000  1
  V  V884  1  0.18750000  0.43750000  0.25000000  1
  V  V885  1  0.18750000  0.43750000  0.31250000  1
  Ti  Ti886  1  0.18750000  0.43750000  0.37500000  1
  Cr  Cr887  1  0.18750000  0.43750000  0.43750000  1
  V  V888  1  0.18750000  0.43750000  0.50000000  1
  V  V889  1  0.18750000  0.43750000  0.56250000  1
  Ti  Ti890  1  0.18750000  0.43750000  0.62500000  1
  V  V891  1  0.18750000  0.43750000  0.68750000  1
  V  V892  1  0.18750000  0.43750000  0.75000000  1
  V  V893  1  0.18750000  0.43750000  0.81250000  1
  Ti  Ti894  1  0.18750000  0.43750000  0.87500000  1
  V  V895  1  0.18750000  0.43750000  0.93750000  1
  V  V896  1  0.18750000  0.50000000  0.00000000  1
  V  V897  1  0.18750000  0.50000000  0.06250000  1
  V  V898  1  0.18750000  0.50000000  0.12500000  1
  V  V899  1  0.18750000  0.50000000  0.18750000  1
  Ti  Ti900  1  0.18750000  0.50000000  0.25000000  1
  V  V901  1  0.18750000  0.50000000  0.31250000  1
  Ti  Ti902  1  0.18750000  0.50000000  0.37500000  1
  V  V903  1  0.18750000  0.50000000  0.43750000  1
  V  V904  1  0.18750000  0.50000000  0.50000000  1
  V  V905  1  0.18750000  0.50000000  0.56250000  1
  V  V906  1  0.18750000  0.50000000  0.62500000  1
  Ti  Ti907  1  0.18750000  0.50000000  0.68750000  1
  V  V908  1  0.18750000  0.50000000  0.75000000  1
  V  V909  1  0.18750000  0.50000000  0.81250000  1
  V  V910  1  0.18750000  0.50000000  0.87500000  1
  Ti  Ti911  1  0.18750000  0.50000000  0.93750000  1
  Ti  Ti912  1  0.18750000  0.56250000  0.00000000  1
  V  V913  1  0.18750000  0.56250000  0.06250000  1
  V  V914  1  0.18750000  0.56250000  0.12500000  1
  V  V915  1  0.18750000  0.56250000  0.18750000  1
  Ti  Ti916  1  0.18750000  0.56250000  0.25000000  1
  V  V917  1  0.18750000  0.56250000  0.31250000  1
  V  V918  1  0.18750000  0.56250000  0.37500000  1
  V  V919  1  0.18750000  0.56250000  0.43750000  1
  V  V920  1  0.18750000  0.56250000  0.50000000  1
  Ti  Ti921  1  0.18750000  0.56250000  0.56250000  1
  V  V922  1  0.18750000  0.56250000  0.62500000  1
  Ti  Ti923  1  0.18750000  0.56250000  0.68750000  1
  Ti  Ti924  1  0.18750000  0.56250000  0.75000000  1
  V  V925  1  0.18750000  0.56250000  0.81250000  1
  Ti  Ti926  1  0.18750000  0.56250000  0.87500000  1
  V  V927  1  0.18750000  0.56250000  0.93750000  1
  Ti  Ti928  1  0.18750000  0.62500000  0.00000000  1
  V  V929  1  0.18750000  0.62500000  0.06250000  1
  V  V930  1  0.18750000  0.62500000  0.12500000  1
  V  V931  1  0.18750000  0.62500000  0.18750000  1
  V  V932  1  0.18750000  0.62500000  0.25000000  1
  Ti  Ti933  1  0.18750000  0.62500000  0.31250000  1
  Cr  Cr934  1  0.18750000  0.62500000  0.37500000  1
  V  V935  1  0.18750000  0.62500000  0.43750000  1
  V  V936  1  0.18750000  0.62500000  0.50000000  1
  Ti  Ti937  1  0.18750000  0.62500000  0.56250000  1
  Ti  Ti938  1  0.18750000  0.62500000  0.62500000  1
  V  V939  1  0.18750000  0.62500000  0.68750000  1
  V  V940  1  0.18750000  0.62500000  0.75000000  1
  Ti  Ti941  1  0.18750000  0.62500000  0.81250000  1
  V  V942  1  0.18750000  0.62500000  0.87500000  1
  V  V943  1  0.18750000  0.62500000  0.93750000  1
  V  V944  1  0.18750000  0.68750000  0.00000000  1
  V  V945  1  0.18750000  0.68750000  0.06250000  1
  Ti  Ti946  1  0.18750000  0.68750000  0.12500000  1
  V  V947  1  0.18750000  0.68750000  0.18750000  1
  V  V948  1  0.18750000  0.68750000  0.25000000  1
  V  V949  1  0.18750000  0.68750000  0.31250000  1
  Ti  Ti950  1  0.18750000  0.68750000  0.37500000  1
  V  V951  1  0.18750000  0.68750000  0.43750000  1
  V  V952  1  0.18750000  0.68750000  0.50000000  1
  V  V953  1  0.18750000  0.68750000  0.56250000  1
  Ti  Ti954  1  0.18750000  0.68750000  0.62500000  1
  Ti  Ti955  1  0.18750000  0.68750000  0.68750000  1
  V  V956  1  0.18750000  0.68750000  0.75000000  1
  V  V957  1  0.18750000  0.68750000  0.81250000  1
  Ti  Ti958  1  0.18750000  0.68750000  0.87500000  1
  Ti  Ti959  1  0.18750000  0.68750000  0.93750000  1
  V  V960  1  0.18750000  0.75000000  0.00000000  1
  V  V961  1  0.18750000  0.75000000  0.06250000  1
  Ti  Ti962  1  0.18750000  0.75000000  0.12500000  1
  Ti  Ti963  1  0.18750000  0.75000000  0.18750000  1
  V  V964  1  0.18750000  0.75000000  0.25000000  1
  V  V965  1  0.18750000  0.75000000  0.31250000  1
  V  V966  1  0.18750000  0.75000000  0.37500000  1
  Cr  Cr967  1  0.18750000  0.75000000  0.43750000  1
  Ti  Ti968  1  0.18750000  0.75000000  0.50000000  1
  Ti  Ti969  1  0.18750000  0.75000000  0.56250000  1
  V  V970  1  0.18750000  0.75000000  0.62500000  1
  Ti  Ti971  1  0.18750000  0.75000000  0.68750000  1
  Ti  Ti972  1  0.18750000  0.75000000  0.75000000  1
  V  V973  1  0.18750000  0.75000000  0.81250000  1
  Ti  Ti974  1  0.18750000  0.75000000  0.87500000  1
  Cr  Cr975  1  0.18750000  0.75000000  0.93750000  1
  Ti  Ti976  1  0.18750000  0.81250000  0.00000000  1
  V  V977  1  0.18750000  0.81250000  0.06250000  1
  Ti  Ti978  1  0.18750000  0.81250000  0.12500000  1
  V  V979  1  0.18750000  0.81250000  0.18750000  1
  V  V980  1  0.18750000  0.81250000  0.25000000  1
  V  V981  1  0.18750000  0.81250000  0.31250000  1
  V  V982  1  0.18750000  0.81250000  0.37500000  1
  V  V983  1  0.18750000  0.81250000  0.43750000  1
  V  V984  1  0.18750000  0.81250000  0.50000000  1
  V  V985  1  0.18750000  0.81250000  0.56250000  1
  V  V986  1  0.18750000  0.81250000  0.62500000  1
  V  V987  1  0.18750000  0.81250000  0.68750000  1
  V  V988  1  0.18750000  0.81250000  0.75000000  1
  V  V989  1  0.18750000  0.81250000  0.81250000  1
  V  V990  1  0.18750000  0.81250000  0.87500000  1
  Ti  Ti991  1  0.18750000  0.81250000  0.93750000  1
  V  V992  1  0.18750000  0.87500000  0.00000000  1
  V  V993  1  0.18750000  0.87500000  0.06250000  1
  V  V994  1  0.18750000  0.87500000  0.12500000  1
  Ti  Ti995  1  0.18750000  0.87500000  0.18750000  1
  V  V996  1  0.18750000  0.87500000  0.25000000  1
  V  V997  1  0.18750000  0.87500000  0.31250000  1
  V  V998  1  0.18750000  0.87500000  0.37500000  1
  V  V999  1  0.18750000  0.87500000  0.43750000  1
  V  V1000  1  0.18750000  0.87500000  0.50000000  1
  V  V1001  1  0.18750000  0.87500000  0.56250000  1
  Ti  Ti1002  1  0.18750000  0.87500000  0.62500000  1
  Cr  Cr1003  1  0.18750000  0.87500000  0.68750000  1
  V  V1004  1  0.18750000  0.87500000  0.75000000  1
  V  V1005  1  0.18750000  0.87500000  0.81250000  1
  V  V1006  1  0.18750000  0.87500000  0.87500000  1
  V  V1007  1  0.18750000  0.87500000  0.93750000  1
  V  V1008  1  0.18750000  0.93750000  0.00000000  1
  V  V1009  1  0.18750000  0.93750000  0.06250000  1
  Cr  Cr1010  1  0.18750000  0.93750000  0.12500000  1
  V  V1011  1  0.18750000  0.93750000  0.18750000  1
  Cr  Cr1012  1  0.18750000  0.93750000  0.25000000  1
  Ti  Ti1013  1  0.18750000  0.93750000  0.31250000  1
  Ti  Ti1014  1  0.18750000  0.93750000  0.37500000  1
  Cr  Cr1015  1  0.18750000  0.93750000  0.43750000  1
  Ti  Ti1016  1  0.18750000  0.93750000  0.50000000  1
  Ti  Ti1017  1  0.18750000  0.93750000  0.56250000  1
  V  V1018  1  0.18750000  0.93750000  0.62500000  1
  V  V1019  1  0.18750000  0.93750000  0.68750000  1
  V  V1020  1  0.18750000  0.93750000  0.75000000  1
  V  V1021  1  0.18750000  0.93750000  0.81250000  1
  Ti  Ti1022  1  0.18750000  0.93750000  0.87500000  1
  V  V1023  1  0.18750000  0.93750000  0.93750000  1
  V  V1024  1  0.25000000  0.00000000  0.00000000  1
  Cr  Cr1025  1  0.25000000  0.00000000  0.06250000  1
  V  V1026  1  0.25000000  0.00000000  0.12500000  1
  V  V1027  1  0.25000000  0.00000000  0.18750000  1
  V  V1028  1  0.25000000  0.00000000  0.25000000  1
  Ti  Ti1029  1  0.25000000  0.00000000  0.31250000  1
  V  V1030  1  0.25000000  0.00000000  0.37500000  1
  V  V1031  1  0.25000000  0.00000000  0.43750000  1
  Ti  Ti1032  1  0.25000000  0.00000000  0.50000000  1
  V  V1033  1  0.25000000  0.00000000  0.56250000  1
  V  V1034  1  0.25000000  0.00000000  0.62500000  1
  V  V1035  1  0.25000000  0.00000000  0.68750000  1
  V  V1036  1  0.25000000  0.00000000  0.75000000  1
  V  V1037  1  0.25000000  0.00000000  0.81250000  1
  V  V1038  1  0.25000000  0.00000000  0.87500000  1
  Ti  Ti1039  1  0.25000000  0.00000000  0.93750000  1
  Ti  Ti1040  1  0.25000000  0.06250000  0.00000000  1
  V  V1041  1  0.25000000  0.06250000  0.06250000  1
  Ti  Ti1042  1  0.25000000  0.06250000  0.12500000  1
  V  V1043  1  0.25000000  0.06250000  0.18750000  1
  Ti  Ti1044  1  0.25000000  0.06250000  0.25000000  1
  Ti  Ti1045  1  0.25000000  0.06250000  0.31250000  1
  V  V1046  1  0.25000000  0.06250000  0.37500000  1
  Ti  Ti1047  1  0.25000000  0.06250000  0.43750000  1
  Ti  Ti1048  1  0.25000000  0.06250000  0.50000000  1
  Ti  Ti1049  1  0.25000000  0.06250000  0.56250000  1
  V  V1050  1  0.25000000  0.06250000  0.62500000  1
  V  V1051  1  0.25000000  0.06250000  0.68750000  1
  Ti  Ti1052  1  0.25000000  0.06250000  0.75000000  1
  V  V1053  1  0.25000000  0.06250000  0.81250000  1
  V  V1054  1  0.25000000  0.06250000  0.87500000  1
  V  V1055  1  0.25000000  0.06250000  0.93750000  1
  V  V1056  1  0.25000000  0.12500000  0.00000000  1
  V  V1057  1  0.25000000  0.12500000  0.06250000  1
  V  V1058  1  0.25000000  0.12500000  0.12500000  1
  V  V1059  1  0.25000000  0.12500000  0.18750000  1
  V  V1060  1  0.25000000  0.12500000  0.25000000  1
  Ti  Ti1061  1  0.25000000  0.12500000  0.31250000  1
  Ti  Ti1062  1  0.25000000  0.12500000  0.37500000  1
  Cr  Cr1063  1  0.25000000  0.12500000  0.43750000  1
  V  V1064  1  0.25000000  0.12500000  0.50000000  1
  V  V1065  1  0.25000000  0.12500000  0.56250000  1
  V  V1066  1  0.25000000  0.12500000  0.62500000  1
  V  V1067  1  0.25000000  0.12500000  0.68750000  1
  V  V1068  1  0.25000000  0.12500000  0.75000000  1
  V  V1069  1  0.25000000  0.12500000  0.81250000  1
  V  V1070  1  0.25000000  0.12500000  0.87500000  1
  Ti  Ti1071  1  0.25000000  0.12500000  0.93750000  1
  Ti  Ti1072  1  0.25000000  0.18750000  0.00000000  1
  V  V1073  1  0.25000000  0.18750000  0.06250000  1
  Ti  Ti1074  1  0.25000000  0.18750000  0.12500000  1
  V  V1075  1  0.25000000  0.18750000  0.18750000  1
  V  V1076  1  0.25000000  0.18750000  0.25000000  1
  V  V1077  1  0.25000000  0.18750000  0.31250000  1
  V  V1078  1  0.25000000  0.18750000  0.37500000  1
  V  V1079  1  0.25000000  0.18750000  0.43750000  1
  V  V1080  1  0.25000000  0.18750000  0.50000000  1
  Ti  Ti1081  1  0.25000000  0.18750000  0.56250000  1
  V  V1082  1  0.25000000  0.18750000  0.62500000  1
  V  V1083  1  0.25000000  0.18750000  0.68750000  1
  Cr  Cr1084  1  0.25000000  0.18750000  0.75000000  1
  Cr  Cr1085  1  0.25000000  0.18750000  0.81250000  1
  V  V1086  1  0.25000000  0.18750000  0.87500000  1
  Ti  Ti1087  1  0.25000000  0.18750000  0.93750000  1
  V  V1088  1  0.25000000  0.25000000  0.00000000  1
  V  V1089  1  0.25000000  0.25000000  0.06250000  1
  V  V1090  1  0.25000000  0.25000000  0.12500000  1
  V  V1091  1  0.25000000  0.25000000  0.18750000  1
  Ti  Ti1092  1  0.25000000  0.25000000  0.25000000  1
  V  V1093  1  0.25000000  0.25000000  0.31250000  1
  V  V1094  1  0.25000000  0.25000000  0.37500000  1
  V  V1095  1  0.25000000  0.25000000  0.43750000  1
  V  V1096  1  0.25000000  0.25000000  0.50000000  1
  Cr  Cr1097  1  0.25000000  0.25000000  0.56250000  1
  V  V1098  1  0.25000000  0.25000000  0.62500000  1
  V  V1099  1  0.25000000  0.25000000  0.68750000  1
  V  V1100  1  0.25000000  0.25000000  0.75000000  1
  V  V1101  1  0.25000000  0.25000000  0.81250000  1
  V  V1102  1  0.25000000  0.25000000  0.87500000  1
  V  V1103  1  0.25000000  0.25000000  0.93750000  1
  V  V1104  1  0.25000000  0.31250000  0.00000000  1
  V  V1105  1  0.25000000  0.31250000  0.06250000  1
  V  V1106  1  0.25000000  0.31250000  0.12500000  1
  Ti  Ti1107  1  0.25000000  0.31250000  0.18750000  1
  V  V1108  1  0.25000000  0.31250000  0.25000000  1
  V  V1109  1  0.25000000  0.31250000  0.31250000  1
  Ti  Ti1110  1  0.25000000  0.31250000  0.37500000  1
  V  V1111  1  0.25000000  0.31250000  0.43750000  1
  V  V1112  1  0.25000000  0.31250000  0.50000000  1
  V  V1113  1  0.25000000  0.31250000  0.56250000  1
  V  V1114  1  0.25000000  0.31250000  0.62500000  1
  V  V1115  1  0.25000000  0.31250000  0.68750000  1
  V  V1116  1  0.25000000  0.31250000  0.75000000  1
  V  V1117  1  0.25000000  0.31250000  0.81250000  1
  V  V1118  1  0.25000000  0.31250000  0.87500000  1
  V  V1119  1  0.25000000  0.31250000  0.93750000  1
  V  V1120  1  0.25000000  0.37500000  0.00000000  1
  Ti  Ti1121  1  0.25000000  0.37500000  0.06250000  1
  Ti  Ti1122  1  0.25000000  0.37500000  0.12500000  1
  Ti  Ti1123  1  0.25000000  0.37500000  0.18750000  1
  V  V1124  1  0.25000000  0.37500000  0.25000000  1
  V  V1125  1  0.25000000  0.37500000  0.31250000  1
  Cr  Cr1126  1  0.25000000  0.37500000  0.37500000  1
  V  V1127  1  0.25000000  0.37500000  0.43750000  1
  Ti  Ti1128  1  0.25000000  0.37500000  0.50000000  1
  V  V1129  1  0.25000000  0.37500000  0.56250000  1
  V  V1130  1  0.25000000  0.37500000  0.62500000  1
  Ti  Ti1131  1  0.25000000  0.37500000  0.68750000  1
  V  V1132  1  0.25000000  0.37500000  0.75000000  1
  V  V1133  1  0.25000000  0.37500000  0.81250000  1
  V  V1134  1  0.25000000  0.37500000  0.87500000  1
  V  V1135  1  0.25000000  0.37500000  0.93750000  1
  Ti  Ti1136  1  0.25000000  0.43750000  0.00000000  1
  V  V1137  1  0.25000000  0.43750000  0.06250000  1
  V  V1138  1  0.25000000  0.43750000  0.12500000  1
  Ti  Ti1139  1  0.25000000  0.43750000  0.18750000  1
  Cr  Cr1140  1  0.25000000  0.43750000  0.25000000  1
  V  V1141  1  0.25000000  0.43750000  0.31250000  1
  V  V1142  1  0.25000000  0.43750000  0.37500000  1
  Ti  Ti1143  1  0.25000000  0.43750000  0.43750000  1
  Cr  Cr1144  1  0.25000000  0.43750000  0.50000000  1
  Ti  Ti1145  1  0.25000000  0.43750000  0.56250000  1
  Ti  Ti1146  1  0.25000000  0.43750000  0.62500000  1
  Ti  Ti1147  1  0.25000000  0.43750000  0.68750000  1
  V  V1148  1  0.25000000  0.43750000  0.75000000  1
  V  V1149  1  0.25000000  0.43750000  0.81250000  1
  V  V1150  1  0.25000000  0.43750000  0.87500000  1
  V  V1151  1  0.25000000  0.43750000  0.93750000  1
  Ti  Ti1152  1  0.25000000  0.50000000  0.00000000  1
  Ti  Ti1153  1  0.25000000  0.50000000  0.06250000  1
  V  V1154  1  0.25000000  0.50000000  0.12500000  1
  V  V1155  1  0.25000000  0.50000000  0.18750000  1
  Ti  Ti1156  1  0.25000000  0.50000000  0.25000000  1
  V  V1157  1  0.25000000  0.50000000  0.31250000  1
  V  V1158  1  0.25000000  0.50000000  0.37500000  1
  V  V1159  1  0.25000000  0.50000000  0.43750000  1
  Ti  Ti1160  1  0.25000000  0.50000000  0.50000000  1
  V  V1161  1  0.25000000  0.50000000  0.56250000  1
  Ti  Ti1162  1  0.25000000  0.50000000  0.62500000  1
  Ti  Ti1163  1  0.25000000  0.50000000  0.68750000  1
  Ti  Ti1164  1  0.25000000  0.50000000  0.75000000  1
  V  V1165  1  0.25000000  0.50000000  0.81250000  1
  V  V1166  1  0.25000000  0.50000000  0.87500000  1
  Ti  Ti1167  1  0.25000000  0.50000000  0.93750000  1
  V  V1168  1  0.25000000  0.56250000  0.00000000  1
  V  V1169  1  0.25000000  0.56250000  0.06250000  1
  V  V1170  1  0.25000000  0.56250000  0.12500000  1
  V  V1171  1  0.25000000  0.56250000  0.18750000  1
  V  V1172  1  0.25000000  0.56250000  0.25000000  1
  V  V1173  1  0.25000000  0.56250000  0.31250000  1
  V  V1174  1  0.25000000  0.56250000  0.37500000  1
  V  V1175  1  0.25000000  0.56250000  0.43750000  1
  V  V1176  1  0.25000000  0.56250000  0.50000000  1
  V  V1177  1  0.25000000  0.56250000  0.56250000  1
  V  V1178  1  0.25000000  0.56250000  0.62500000  1
  V  V1179  1  0.25000000  0.56250000  0.68750000  1
  V  V1180  1  0.25000000  0.56250000  0.75000000  1
  V  V1181  1  0.25000000  0.56250000  0.81250000  1
  V  V1182  1  0.25000000  0.56250000  0.87500000  1
  V  V1183  1  0.25000000  0.56250000  0.93750000  1
  V  V1184  1  0.25000000  0.62500000  0.00000000  1
  Cr  Cr1185  1  0.25000000  0.62500000  0.06250000  1
  Ti  Ti1186  1  0.25000000  0.62500000  0.12500000  1
  V  V1187  1  0.25000000  0.62500000  0.18750000  1
  V  V1188  1  0.25000000  0.62500000  0.25000000  1
  V  V1189  1  0.25000000  0.62500000  0.31250000  1
  V  V1190  1  0.25000000  0.62500000  0.37500000  1
  V  V1191  1  0.25000000  0.62500000  0.43750000  1
  Cr  Cr1192  1  0.25000000  0.62500000  0.50000000  1
  V  V1193  1  0.25000000  0.62500000  0.56250000  1
  V  V1194  1  0.25000000  0.62500000  0.62500000  1
  Ti  Ti1195  1  0.25000000  0.62500000  0.68750000  1
  V  V1196  1  0.25000000  0.62500000  0.75000000  1
  Ti  Ti1197  1  0.25000000  0.62500000  0.81250000  1
  V  V1198  1  0.25000000  0.62500000  0.87500000  1
  Cr  Cr1199  1  0.25000000  0.62500000  0.93750000  1
  Cr  Cr1200  1  0.25000000  0.68750000  0.00000000  1
  V  V1201  1  0.25000000  0.68750000  0.06250000  1
  Ti  Ti1202  1  0.25000000  0.68750000  0.12500000  1
  V  V1203  1  0.25000000  0.68750000  0.18750000  1
  Ti  Ti1204  1  0.25000000  0.68750000  0.25000000  1
  V  V1205  1  0.25000000  0.68750000  0.31250000  1
  V  V1206  1  0.25000000  0.68750000  0.37500000  1
  V  V1207  1  0.25000000  0.68750000  0.43750000  1
  V  V1208  1  0.25000000  0.68750000  0.50000000  1
  Cr  Cr1209  1  0.25000000  0.68750000  0.56250000  1
  V  V1210  1  0.25000000  0.68750000  0.62500000  1
  Ti  Ti1211  1  0.25000000  0.68750000  0.68750000  1
  Ti  Ti1212  1  0.25000000  0.68750000  0.75000000  1
  V  V1213  1  0.25000000  0.68750000  0.81250000  1
  V  V1214  1  0.25000000  0.68750000  0.87500000  1
  Ti  Ti1215  1  0.25000000  0.68750000  0.93750000  1
  Ti  Ti1216  1  0.25000000  0.75000000  0.00000000  1
  V  V1217  1  0.25000000  0.75000000  0.06250000  1
  Cr  Cr1218  1  0.25000000  0.75000000  0.12500000  1
  Ti  Ti1219  1  0.25000000  0.75000000  0.18750000  1
  Ti  Ti1220  1  0.25000000  0.75000000  0.25000000  1
  Ti  Ti1221  1  0.25000000  0.75000000  0.31250000  1
  V  V1222  1  0.25000000  0.75000000  0.37500000  1
  Cr  Cr1223  1  0.25000000  0.75000000  0.43750000  1
  Cr  Cr1224  1  0.25000000  0.75000000  0.50000000  1
  Cr  Cr1225  1  0.25000000  0.75000000  0.56250000  1
  Ti  Ti1226  1  0.25000000  0.75000000  0.62500000  1
  V  V1227  1  0.25000000  0.75000000  0.68750000  1
  V  V1228  1  0.25000000  0.75000000  0.75000000  1
  V  V1229  1  0.25000000  0.75000000  0.81250000  1
  Ti  Ti1230  1  0.25000000  0.75000000  0.87500000  1
  Ti  Ti1231  1  0.25000000  0.75000000  0.93750000  1
  V  V1232  1  0.25000000  0.81250000  0.00000000  1
  Ti  Ti1233  1  0.25000000  0.81250000  0.06250000  1
  V  V1234  1  0.25000000  0.81250000  0.12500000  1
  V  V1235  1  0.25000000  0.81250000  0.18750000  1
  V  V1236  1  0.25000000  0.81250000  0.25000000  1
  V  V1237  1  0.25000000  0.81250000  0.31250000  1
  Cr  Cr1238  1  0.25000000  0.81250000  0.37500000  1
  Ti  Ti1239  1  0.25000000  0.81250000  0.43750000  1
  V  V1240  1  0.25000000  0.81250000  0.50000000  1
  V  V1241  1  0.25000000  0.81250000  0.56250000  1
  V  V1242  1  0.25000000  0.81250000  0.62500000  1
  Ti  Ti1243  1  0.25000000  0.81250000  0.68750000  1
  V  V1244  1  0.25000000  0.81250000  0.75000000  1
  Cr  Cr1245  1  0.25000000  0.81250000  0.81250000  1
  Ti  Ti1246  1  0.25000000  0.81250000  0.87500000  1
  V  V1247  1  0.25000000  0.81250000  0.93750000  1
  V  V1248  1  0.25000000  0.87500000  0.00000000  1
  V  V1249  1  0.25000000  0.87500000  0.06250000  1
  V  V1250  1  0.25000000  0.87500000  0.12500000  1
  V  V1251  1  0.25000000  0.87500000  0.18750000  1
  V  V1252  1  0.25000000  0.87500000  0.25000000  1
  V  V1253  1  0.25000000  0.87500000  0.31250000  1
  V  V1254  1  0.25000000  0.87500000  0.37500000  1
  V  V1255  1  0.25000000  0.87500000  0.43750000  1
  V  V1256  1  0.25000000  0.87500000  0.50000000  1
  V  V1257  1  0.25000000  0.87500000  0.56250000  1
  V  V1258  1  0.25000000  0.87500000  0.62500000  1
  Ti  Ti1259  1  0.25000000  0.87500000  0.68750000  1
  Ti  Ti1260  1  0.25000000  0.87500000  0.75000000  1
  V  V1261  1  0.25000000  0.87500000  0.81250000  1
  V  V1262  1  0.25000000  0.87500000  0.87500000  1
  Ti  Ti1263  1  0.25000000  0.87500000  0.93750000  1
  V  V1264  1  0.25000000  0.93750000  0.00000000  1
  V  V1265  1  0.25000000  0.93750000  0.06250000  1
  Cr  Cr1266  1  0.25000000  0.93750000  0.12500000  1
  Ti  Ti1267  1  0.25000000  0.93750000  0.18750000  1
  V  V1268  1  0.25000000  0.93750000  0.25000000  1
  Cr  Cr1269  1  0.25000000  0.93750000  0.31250000  1
  V  V1270  1  0.25000000  0.93750000  0.37500000  1
  V  V1271  1  0.25000000  0.93750000  0.43750000  1
  V  V1272  1  0.25000000  0.93750000  0.50000000  1
  V  V1273  1  0.25000000  0.93750000  0.56250000  1
  V  V1274  1  0.25000000  0.93750000  0.62500000  1
  V  V1275  1  0.25000000  0.93750000  0.68750000  1
  Cr  Cr1276  1  0.25000000  0.93750000  0.75000000  1
  V  V1277  1  0.25000000  0.93750000  0.81250000  1
  V  V1278  1  0.25000000  0.93750000  0.87500000  1
  Ti  Ti1279  1  0.25000000  0.93750000  0.93750000  1
  V  V1280  1  0.31250000  0.00000000  0.00000000  1
  Ti  Ti1281  1  0.31250000  0.00000000  0.06250000  1
  V  V1282  1  0.31250000  0.00000000  0.12500000  1
  V  V1283  1  0.31250000  0.00000000  0.18750000  1
  Ti  Ti1284  1  0.31250000  0.00000000  0.25000000  1
  V  V1285  1  0.31250000  0.00000000  0.31250000  1
  Ti  Ti1286  1  0.31250000  0.00000000  0.37500000  1
  Ti  Ti1287  1  0.31250000  0.00000000  0.43750000  1
  Cr  Cr1288  1  0.31250000  0.00000000  0.50000000  1
  Ti  Ti1289  1  0.31250000  0.00000000  0.56250000  1
  V  V1290  1  0.31250000  0.00000000  0.62500000  1
  V  V1291  1  0.31250000  0.00000000  0.68750000  1
  V  V1292  1  0.31250000  0.00000000  0.75000000  1
  V  V1293  1  0.31250000  0.00000000  0.81250000  1
  V  V1294  1  0.31250000  0.00000000  0.87500000  1
  Ti  Ti1295  1  0.31250000  0.00000000  0.93750000  1
  Cr  Cr1296  1  0.31250000  0.06250000  0.00000000  1
  V  V1297  1  0.31250000  0.06250000  0.06250000  1
  Ti  Ti1298  1  0.31250000  0.06250000  0.12500000  1
  V  V1299  1  0.31250000  0.06250000  0.18750000  1
  Ti  Ti1300  1  0.31250000  0.06250000  0.25000000  1
  V  V1301  1  0.31250000  0.06250000  0.31250000  1
  Ti  Ti1302  1  0.31250000  0.06250000  0.37500000  1
  V  V1303  1  0.31250000  0.06250000  0.43750000  1
  V  V1304  1  0.31250000  0.06250000  0.50000000  1
  Ti  Ti1305  1  0.31250000  0.06250000  0.56250000  1
  V  V1306  1  0.31250000  0.06250000  0.62500000  1
  V  V1307  1  0.31250000  0.06250000  0.68750000  1
  V  V1308  1  0.31250000  0.06250000  0.75000000  1
  V  V1309  1  0.31250000  0.06250000  0.81250000  1
  Ti  Ti1310  1  0.31250000  0.06250000  0.87500000  1
  V  V1311  1  0.31250000  0.06250000  0.93750000  1
  Ti  Ti1312  1  0.31250000  0.12500000  0.00000000  1
  Ti  Ti1313  1  0.31250000  0.12500000  0.06250000  1
  Ti  Ti1314  1  0.31250000  0.12500000  0.12500000  1
  Ti  Ti1315  1  0.31250000  0.12500000  0.18750000  1
  V  V1316  1  0.31250000  0.12500000  0.25000000  1
  V  V1317  1  0.31250000  0.12500000  0.31250000  1
  V  V1318  1  0.31250000  0.12500000  0.37500000  1
  V  V1319  1  0.31250000  0.12500000  0.43750000  1
  V  V1320  1  0.31250000  0.12500000  0.50000000  1
  V  V1321  1  0.31250000  0.12500000  0.56250000  1
  Ti  Ti1322  1  0.31250000  0.12500000  0.62500000  1
  V  V1323  1  0.31250000  0.12500000  0.68750000  1
  V  V1324  1  0.31250000  0.12500000  0.75000000  1
  Cr  Cr1325  1  0.31250000  0.12500000  0.81250000  1
  V  V1326  1  0.31250000  0.12500000  0.87500000  1
  V  V1327  1  0.31250000  0.12500000  0.93750000  1
  Ti  Ti1328  1  0.31250000  0.18750000  0.00000000  1
  Ti  Ti1329  1  0.31250000  0.18750000  0.06250000  1
  V  V1330  1  0.31250000  0.18750000  0.12500000  1
  V  V1331  1  0.31250000  0.18750000  0.18750000  1
  V  V1332  1  0.31250000  0.18750000  0.25000000  1
  V  V1333  1  0.31250000  0.18750000  0.31250000  1
  V  V1334  1  0.31250000  0.18750000  0.37500000  1
  V  V1335  1  0.31250000  0.18750000  0.43750000  1
  Cr  Cr1336  1  0.31250000  0.18750000  0.50000000  1
  V  V1337  1  0.31250000  0.18750000  0.56250000  1
  V  V1338  1  0.31250000  0.18750000  0.62500000  1
  V  V1339  1  0.31250000  0.18750000  0.68750000  1
  Ti  Ti1340  1  0.31250000  0.18750000  0.75000000  1
  Ti  Ti1341  1  0.31250000  0.18750000  0.81250000  1
  V  V1342  1  0.31250000  0.18750000  0.87500000  1
  V  V1343  1  0.31250000  0.18750000  0.93750000  1
  V  V1344  1  0.31250000  0.25000000  0.00000000  1
  Ti  Ti1345  1  0.31250000  0.25000000  0.06250000  1
  V  V1346  1  0.31250000  0.25000000  0.12500000  1
  V  V1347  1  0.31250000  0.25000000  0.18750000  1
  Cr  Cr1348  1  0.31250000  0.25000000  0.25000000  1
  Ti  Ti1349  1  0.31250000  0.25000000  0.31250000  1
  V  V1350  1  0.31250000  0.25000000  0.37500000  1
  Cr  Cr1351  1  0.31250000  0.25000000  0.43750000  1
  V  V1352  1  0.31250000  0.25000000  0.50000000  1
  V  V1353  1  0.31250000  0.25000000  0.56250000  1
  V  V1354  1  0.31250000  0.25000000  0.62500000  1
  V  V1355  1  0.31250000  0.25000000  0.68750000  1
  Ti  Ti1356  1  0.31250000  0.25000000  0.75000000  1
  V  V1357  1  0.31250000  0.25000000  0.81250000  1
  V  V1358  1  0.31250000  0.25000000  0.87500000  1
  V  V1359  1  0.31250000  0.25000000  0.93750000  1
  V  V1360  1  0.31250000  0.31250000  0.00000000  1
  Ti  Ti1361  1  0.31250000  0.31250000  0.06250000  1
  Ti  Ti1362  1  0.31250000  0.31250000  0.12500000  1
  Ti  Ti1363  1  0.31250000  0.31250000  0.18750000  1
  V  V1364  1  0.31250000  0.31250000  0.25000000  1
  Cr  Cr1365  1  0.31250000  0.31250000  0.31250000  1
  V  V1366  1  0.31250000  0.31250000  0.37500000  1
  V  V1367  1  0.31250000  0.31250000  0.43750000  1
  Ti  Ti1368  1  0.31250000  0.31250000  0.50000000  1
  Ti  Ti1369  1  0.31250000  0.31250000  0.56250000  1
  V  V1370  1  0.31250000  0.31250000  0.62500000  1
  Ti  Ti1371  1  0.31250000  0.31250000  0.68750000  1
  Ti  Ti1372  1  0.31250000  0.31250000  0.75000000  1
  V  V1373  1  0.31250000  0.31250000  0.81250000  1
  V  V1374  1  0.31250000  0.31250000  0.87500000  1
  V  V1375  1  0.31250000  0.31250000  0.93750000  1
  V  V1376  1  0.31250000  0.37500000  0.00000000  1
  V  V1377  1  0.31250000  0.37500000  0.06250000  1
  V  V1378  1  0.31250000  0.37500000  0.12500000  1
  Ti  Ti1379  1  0.31250000  0.37500000  0.18750000  1
  V  V1380  1  0.31250000  0.37500000  0.25000000  1
  V  V1381  1  0.31250000  0.37500000  0.31250000  1
  V  V1382  1  0.31250000  0.37500000  0.37500000  1
  V  V1383  1  0.31250000  0.37500000  0.43750000  1
  Ti  Ti1384  1  0.31250000  0.37500000  0.50000000  1
  Cr  Cr1385  1  0.31250000  0.37500000  0.56250000  1
  V  V1386  1  0.31250000  0.37500000  0.62500000  1
  Ti  Ti1387  1  0.31250000  0.37500000  0.68750000  1
  V  V1388  1  0.31250000  0.37500000  0.75000000  1
  Ti  Ti1389  1  0.31250000  0.37500000  0.81250000  1
  Ti  Ti1390  1  0.31250000  0.37500000  0.87500000  1
  V  V1391  1  0.31250000  0.37500000  0.93750000  1
  V  V1392  1  0.31250000  0.43750000  0.00000000  1
  Ti  Ti1393  1  0.31250000  0.43750000  0.06250000  1
  Ti  Ti1394  1  0.31250000  0.43750000  0.12500000  1
  V  V1395  1  0.31250000  0.43750000  0.18750000  1
  Ti  Ti1396  1  0.31250000  0.43750000  0.25000000  1
  V  V1397  1  0.31250000  0.43750000  0.31250000  1
  V  V1398  1  0.31250000  0.43750000  0.37500000  1
  Ti  Ti1399  1  0.31250000  0.43750000  0.43750000  1
  V  V1400  1  0.31250000  0.43750000  0.50000000  1
  Ti  Ti1401  1  0.31250000  0.43750000  0.56250000  1
  V  V1402  1  0.31250000  0.43750000  0.62500000  1
  Ti  Ti1403  1  0.31250000  0.43750000  0.68750000  1
  Cr  Cr1404  1  0.31250000  0.43750000  0.75000000  1
  Ti  Ti1405  1  0.31250000  0.43750000  0.81250000  1
  V  V1406  1  0.31250000  0.43750000  0.87500000  1
  Ti  Ti1407  1  0.31250000  0.43750000  0.93750000  1
  V  V1408  1  0.31250000  0.50000000  0.00000000  1
  Ti  Ti1409  1  0.31250000  0.50000000  0.06250000  1
  V  V1410  1  0.31250000  0.50000000  0.12500000  1
  V  V1411  1  0.31250000  0.50000000  0.18750000  1
  V  V1412  1  0.31250000  0.50000000  0.25000000  1
  V  V1413  1  0.31250000  0.50000000  0.31250000  1
  V  V1414  1  0.31250000  0.50000000  0.37500000  1
  V  V1415  1  0.31250000  0.50000000  0.43750000  1
  V  V1416  1  0.31250000  0.50000000  0.50000000  1
  V  V1417  1  0.31250000  0.50000000  0.56250000  1
  Cr  Cr1418  1  0.31250000  0.50000000  0.62500000  1
  Ti  Ti1419  1  0.31250000  0.50000000  0.68750000  1
  V  V1420  1  0.31250000  0.50000000  0.75000000  1
  V  V1421  1  0.31250000  0.50000000  0.81250000  1
  Ti  Ti1422  1  0.31250000  0.50000000  0.87500000  1
  V  V1423  1  0.31250000  0.50000000  0.93750000  1
  V  V1424  1  0.31250000  0.56250000  0.00000000  1
  V  V1425  1  0.31250000  0.56250000  0.06250000  1
  V  V1426  1  0.31250000  0.56250000  0.12500000  1
  V  V1427  1  0.31250000  0.56250000  0.18750000  1
  V  V1428  1  0.31250000  0.56250000  0.25000000  1
  Cr  Cr1429  1  0.31250000  0.56250000  0.31250000  1
  Ti  Ti1430  1  0.31250000  0.56250000  0.37500000  1
  Ti  Ti1431  1  0.31250000  0.56250000  0.43750000  1
  Ti  Ti1432  1  0.31250000  0.56250000  0.50000000  1
  Ti  Ti1433  1  0.31250000  0.56250000  0.56250000  1
  V  V1434  1  0.31250000  0.56250000  0.62500000  1
  Ti  Ti1435  1  0.31250000  0.56250000  0.68750000  1
  V  V1436  1  0.31250000  0.56250000  0.75000000  1
  Ti  Ti1437  1  0.31250000  0.56250000  0.81250000  1
  V  V1438  1  0.31250000  0.56250000  0.87500000  1
  V  V1439  1  0.31250000  0.56250000  0.93750000  1
  V  V1440  1  0.31250000  0.62500000  0.00000000  1
  V  V1441  1  0.31250000  0.62500000  0.06250000  1
  V  V1442  1  0.31250000  0.62500000  0.12500000  1
  Ti  Ti1443  1  0.31250000  0.62500000  0.18750000  1
  V  V1444  1  0.31250000  0.62500000  0.25000000  1
  Ti  Ti1445  1  0.31250000  0.62500000  0.31250000  1
  V  V1446  1  0.31250000  0.62500000  0.37500000  1
  Cr  Cr1447  1  0.31250000  0.62500000  0.43750000  1
  V  V1448  1  0.31250000  0.62500000  0.50000000  1
  V  V1449  1  0.31250000  0.62500000  0.56250000  1
  V  V1450  1  0.31250000  0.62500000  0.62500000  1
  V  V1451  1  0.31250000  0.62500000  0.68750000  1
  Cr  Cr1452  1  0.31250000  0.62500000  0.75000000  1
  V  V1453  1  0.31250000  0.62500000  0.81250000  1
  Ti  Ti1454  1  0.31250000  0.62500000  0.87500000  1
  Ti  Ti1455  1  0.31250000  0.62500000  0.93750000  1
  Ti  Ti1456  1  0.31250000  0.68750000  0.00000000  1
  V  V1457  1  0.31250000  0.68750000  0.06250000  1
  V  V1458  1  0.31250000  0.68750000  0.12500000  1
  V  V1459  1  0.31250000  0.68750000  0.18750000  1
  Ti  Ti1460  1  0.31250000  0.68750000  0.25000000  1
  V  V1461  1  0.31250000  0.68750000  0.31250000  1
  V  V1462  1  0.31250000  0.68750000  0.37500000  1
  V  V1463  1  0.31250000  0.68750000  0.43750000  1
  V  V1464  1  0.31250000  0.68750000  0.50000000  1
  Ti  Ti1465  1  0.31250000  0.68750000  0.56250000  1
  V  V1466  1  0.31250000  0.68750000  0.62500000  1
  V  V1467  1  0.31250000  0.68750000  0.68750000  1
  Ti  Ti1468  1  0.31250000  0.68750000  0.75000000  1
  V  V1469  1  0.31250000  0.68750000  0.81250000  1
  V  V1470  1  0.31250000  0.68750000  0.87500000  1
  V  V1471  1  0.31250000  0.68750000  0.93750000  1
  V  V1472  1  0.31250000  0.75000000  0.00000000  1
  Ti  Ti1473  1  0.31250000  0.75000000  0.06250000  1
  V  V1474  1  0.31250000  0.75000000  0.12500000  1
  V  V1475  1  0.31250000  0.75000000  0.18750000  1
  Cr  Cr1476  1  0.31250000  0.75000000  0.25000000  1
  V  V1477  1  0.31250000  0.75000000  0.31250000  1
  V  V1478  1  0.31250000  0.75000000  0.37500000  1
  V  V1479  1  0.31250000  0.75000000  0.43750000  1
  Ti  Ti1480  1  0.31250000  0.75000000  0.50000000  1
  V  V1481  1  0.31250000  0.75000000  0.56250000  1
  V  V1482  1  0.31250000  0.75000000  0.62500000  1
  V  V1483  1  0.31250000  0.75000000  0.68750000  1
  V  V1484  1  0.31250000  0.75000000  0.75000000  1
  V  V1485  1  0.31250000  0.75000000  0.81250000  1
  Ti  Ti1486  1  0.31250000  0.75000000  0.87500000  1
  V  V1487  1  0.31250000  0.75000000  0.93750000  1
  V  V1488  1  0.31250000  0.81250000  0.00000000  1
  V  V1489  1  0.31250000  0.81250000  0.06250000  1
  V  V1490  1  0.31250000  0.81250000  0.12500000  1
  Ti  Ti1491  1  0.31250000  0.81250000  0.18750000  1
  V  V1492  1  0.31250000  0.81250000  0.25000000  1
  V  V1493  1  0.31250000  0.81250000  0.31250000  1
  Ti  Ti1494  1  0.31250000  0.81250000  0.37500000  1
  V  V1495  1  0.31250000  0.81250000  0.43750000  1
  V  V1496  1  0.31250000  0.81250000  0.50000000  1
  V  V1497  1  0.31250000  0.81250000  0.56250000  1
  V  V1498  1  0.31250000  0.81250000  0.62500000  1
  V  V1499  1  0.31250000  0.81250000  0.68750000  1
  V  V1500  1  0.31250000  0.81250000  0.75000000  1
  V  V1501  1  0.31250000  0.81250000  0.81250000  1
  V  V1502  1  0.31250000  0.81250000  0.87500000  1
  V  V1503  1  0.31250000  0.81250000  0.93750000  1
  Cr  Cr1504  1  0.31250000  0.87500000  0.00000000  1
  V  V1505  1  0.31250000  0.87500000  0.06250000  1
  Ti  Ti1506  1  0.31250000  0.87500000  0.12500000  1
  Ti  Ti1507  1  0.31250000  0.87500000  0.18750000  1
  V  V1508  1  0.31250000  0.87500000  0.25000000  1
  V  V1509  1  0.31250000  0.87500000  0.31250000  1
  V  V1510  1  0.31250000  0.87500000  0.37500000  1
  V  V1511  1  0.31250000  0.87500000  0.43750000  1
  Ti  Ti1512  1  0.31250000  0.87500000  0.50000000  1
  V  V1513  1  0.31250000  0.87500000  0.56250000  1
  V  V1514  1  0.31250000  0.87500000  0.62500000  1
  Ti  Ti1515  1  0.31250000  0.87500000  0.68750000  1
  Ti  Ti1516  1  0.31250000  0.87500000  0.75000000  1
  Cr  Cr1517  1  0.31250000  0.87500000  0.81250000  1
  Ti  Ti1518  1  0.31250000  0.87500000  0.87500000  1
  Ti  Ti1519  1  0.31250000  0.87500000  0.93750000  1
  V  V1520  1  0.31250000  0.93750000  0.00000000  1
  V  V1521  1  0.31250000  0.93750000  0.06250000  1
  Cr  Cr1522  1  0.31250000  0.93750000  0.12500000  1
  V  V1523  1  0.31250000  0.93750000  0.18750000  1
  V  V1524  1  0.31250000  0.93750000  0.25000000  1
  Ti  Ti1525  1  0.31250000  0.93750000  0.31250000  1
  Ti  Ti1526  1  0.31250000  0.93750000  0.37500000  1
  V  V1527  1  0.31250000  0.93750000  0.43750000  1
  Ti  Ti1528  1  0.31250000  0.93750000  0.50000000  1
  V  V1529  1  0.31250000  0.93750000  0.56250000  1
  Ti  Ti1530  1  0.31250000  0.93750000  0.62500000  1
  V  V1531  1  0.31250000  0.93750000  0.68750000  1
  Ti  Ti1532  1  0.31250000  0.93750000  0.75000000  1
  V  V1533  1  0.31250000  0.93750000  0.81250000  1
  V  V1534  1  0.31250000  0.93750000  0.87500000  1
  V  V1535  1  0.31250000  0.93750000  0.93750000  1
  V  V1536  1  0.37500000  0.00000000  0.00000000  1
  V  V1537  1  0.37500000  0.00000000  0.06250000  1
  Ti  Ti1538  1  0.37500000  0.00000000  0.12500000  1
  V  V1539  1  0.37500000  0.00000000  0.18750000  1
  Ti  Ti1540  1  0.37500000  0.00000000  0.25000000  1
  Cr  Cr1541  1  0.37500000  0.00000000  0.31250000  1
  Cr  Cr1542  1  0.37500000  0.00000000  0.37500000  1
  V  V1543  1  0.37500000  0.00000000  0.43750000  1
  Ti  Ti1544  1  0.37500000  0.00000000  0.50000000  1
  V  V1545  1  0.37500000  0.00000000  0.56250000  1
  Ti  Ti1546  1  0.37500000  0.00000000  0.62500000  1
  V  V1547  1  0.37500000  0.00000000  0.68750000  1
  V  V1548  1  0.37500000  0.00000000  0.75000000  1
  Cr  Cr1549  1  0.37500000  0.00000000  0.81250000  1
  V  V1550  1  0.37500000  0.00000000  0.87500000  1
  Ti  Ti1551  1  0.37500000  0.00000000  0.93750000  1
  Ti  Ti1552  1  0.37500000  0.06250000  0.00000000  1
  Ti  Ti1553  1  0.37500000  0.06250000  0.06250000  1
  Ti  Ti1554  1  0.37500000  0.06250000  0.12500000  1
  V  V1555  1  0.37500000  0.06250000  0.18750000  1
  V  V1556  1  0.37500000  0.06250000  0.25000000  1
  V  V1557  1  0.37500000  0.06250000  0.31250000  1
  V  V1558  1  0.37500000  0.06250000  0.37500000  1
  V  V1559  1  0.37500000  0.06250000  0.43750000  1
  V  V1560  1  0.37500000  0.06250000  0.50000000  1
  Ti  Ti1561  1  0.37500000  0.06250000  0.56250000  1
  V  V1562  1  0.37500000  0.06250000  0.62500000  1
  V  V1563  1  0.37500000  0.06250000  0.68750000  1
  V  V1564  1  0.37500000  0.06250000  0.75000000  1
  Ti  Ti1565  1  0.37500000  0.06250000  0.81250000  1
  V  V1566  1  0.37500000  0.06250000  0.87500000  1
  V  V1567  1  0.37500000  0.06250000  0.93750000  1
  V  V1568  1  0.37500000  0.12500000  0.00000000  1
  V  V1569  1  0.37500000  0.12500000  0.06250000  1
  V  V1570  1  0.37500000  0.12500000  0.12500000  1
  V  V1571  1  0.37500000  0.12500000  0.18750000  1
  V  V1572  1  0.37500000  0.12500000  0.25000000  1
  Cr  Cr1573  1  0.37500000  0.12500000  0.31250000  1
  V  V1574  1  0.37500000  0.12500000  0.37500000  1
  V  V1575  1  0.37500000  0.12500000  0.43750000  1
  Ti  Ti1576  1  0.37500000  0.12500000  0.50000000  1
  Cr  Cr1577  1  0.37500000  0.12500000  0.56250000  1
  V  V1578  1  0.37500000  0.12500000  0.62500000  1
  Ti  Ti1579  1  0.37500000  0.12500000  0.68750000  1
  V  V1580  1  0.37500000  0.12500000  0.75000000  1
  Ti  Ti1581  1  0.37500000  0.12500000  0.81250000  1
  V  V1582  1  0.37500000  0.12500000  0.87500000  1
  V  V1583  1  0.37500000  0.12500000  0.93750000  1
  V  V1584  1  0.37500000  0.18750000  0.00000000  1
  V  V1585  1  0.37500000  0.18750000  0.06250000  1
  Ti  Ti1586  1  0.37500000  0.18750000  0.12500000  1
  V  V1587  1  0.37500000  0.18750000  0.18750000  1
  Ti  Ti1588  1  0.37500000  0.18750000  0.25000000  1
  V  V1589  1  0.37500000  0.18750000  0.31250000  1
  V  V1590  1  0.37500000  0.18750000  0.37500000  1
  V  V1591  1  0.37500000  0.18750000  0.43750000  1
  V  V1592  1  0.37500000  0.18750000  0.50000000  1
  V  V1593  1  0.37500000  0.18750000  0.56250000  1
  V  V1594  1  0.37500000  0.18750000  0.62500000  1
  V  V1595  1  0.37500000  0.18750000  0.68750000  1
  V  V1596  1  0.37500000  0.18750000  0.75000000  1
  V  V1597  1  0.37500000  0.18750000  0.81250000  1
  Ti  Ti1598  1  0.37500000  0.18750000  0.87500000  1
  V  V1599  1  0.37500000  0.18750000  0.93750000  1
  V  V1600  1  0.37500000  0.25000000  0.00000000  1
  V  V1601  1  0.37500000  0.25000000  0.06250000  1
  V  V1602  1  0.37500000  0.25000000  0.12500000  1
  V  V1603  1  0.37500000  0.25000000  0.18750000  1
  V  V1604  1  0.37500000  0.25000000  0.25000000  1
  V  V1605  1  0.37500000  0.25000000  0.31250000  1
  Ti  Ti1606  1  0.37500000  0.25000000  0.37500000  1
  V  V1607  1  0.37500000  0.25000000  0.43750000  1
  Ti  Ti1608  1  0.37500000  0.25000000  0.50000000  1
  Ti  Ti1609  1  0.37500000  0.25000000  0.56250000  1
  Ti  Ti1610  1  0.37500000  0.25000000  0.62500000  1
  V  V1611  1  0.37500000  0.25000000  0.68750000  1
  V  V1612  1  0.37500000  0.25000000  0.75000000  1
  Cr  Cr1613  1  0.37500000  0.25000000  0.81250000  1
  Cr  Cr1614  1  0.37500000  0.25000000  0.87500000  1
  Cr  Cr1615  1  0.37500000  0.25000000  0.93750000  1
  V  V1616  1  0.37500000  0.31250000  0.00000000  1
  Ti  Ti1617  1  0.37500000  0.31250000  0.06250000  1
  Ti  Ti1618  1  0.37500000  0.31250000  0.12500000  1
  V  V1619  1  0.37500000  0.31250000  0.18750000  1
  V  V1620  1  0.37500000  0.31250000  0.25000000  1
  Ti  Ti1621  1  0.37500000  0.31250000  0.31250000  1
  V  V1622  1  0.37500000  0.31250000  0.37500000  1
  Ti  Ti1623  1  0.37500000  0.31250000  0.43750000  1
  V  V1624  1  0.37500000  0.31250000  0.50000000  1
  Cr  Cr1625  1  0.37500000  0.31250000  0.56250000  1
  Ti  Ti1626  1  0.37500000  0.31250000  0.62500000  1
  V  V1627  1  0.37500000  0.31250000  0.68750000  1
  V  V1628  1  0.37500000  0.31250000  0.75000000  1
  V  V1629  1  0.37500000  0.31250000  0.81250000  1
  V  V1630  1  0.37500000  0.31250000  0.87500000  1
  V  V1631  1  0.37500000  0.31250000  0.93750000  1
  V  V1632  1  0.37500000  0.37500000  0.00000000  1
  Ti  Ti1633  1  0.37500000  0.37500000  0.06250000  1
  V  V1634  1  0.37500000  0.37500000  0.12500000  1
  Ti  Ti1635  1  0.37500000  0.37500000  0.18750000  1
  V  V1636  1  0.37500000  0.37500000  0.25000000  1
  V  V1637  1  0.37500000  0.37500000  0.31250000  1
  Ti  Ti1638  1  0.37500000  0.37500000  0.37500000  1
  V  V1639  1  0.37500000  0.37500000  0.43750000  1
  V  V1640  1  0.37500000  0.37500000  0.50000000  1
  V  V1641  1  0.37500000  0.37500000  0.56250000  1
  V  V1642  1  0.37500000  0.37500000  0.62500000  1
  V  V1643  1  0.37500000  0.37500000  0.68750000  1
  V  V1644  1  0.37500000  0.37500000  0.75000000  1
  V  V1645  1  0.37500000  0.37500000  0.81250000  1
  V  V1646  1  0.37500000  0.37500000  0.87500000  1
  V  V1647  1  0.37500000  0.37500000  0.93750000  1
  Ti  Ti1648  1  0.37500000  0.43750000  0.00000000  1
  V  V1649  1  0.37500000  0.43750000  0.06250000  1
  V  V1650  1  0.37500000  0.43750000  0.12500000  1
  V  V1651  1  0.37500000  0.43750000  0.18750000  1
  V  V1652  1  0.37500000  0.43750000  0.25000000  1
  Ti  Ti1653  1  0.37500000  0.43750000  0.31250000  1
  V  V1654  1  0.37500000  0.43750000  0.37500000  1
  Ti  Ti1655  1  0.37500000  0.43750000  0.43750000  1
  V  V1656  1  0.37500000  0.43750000  0.50000000  1
  Ti  Ti1657  1  0.37500000  0.43750000  0.56250000  1
  V  V1658  1  0.37500000  0.43750000  0.62500000  1
  V  V1659  1  0.37500000  0.43750000  0.68750000  1
  Ti  Ti1660  1  0.37500000  0.43750000  0.75000000  1
  V  V1661  1  0.37500000  0.43750000  0.81250000  1
  Ti  Ti1662  1  0.37500000  0.43750000  0.87500000  1
  Ti  Ti1663  1  0.37500000  0.43750000  0.93750000  1
  Ti  Ti1664  1  0.37500000  0.50000000  0.00000000  1
  Ti  Ti1665  1  0.37500000  0.50000000  0.06250000  1
  Ti  Ti1666  1  0.37500000  0.50000000  0.12500000  1
  Ti  Ti1667  1  0.37500000  0.50000000  0.18750000  1
  Ti  Ti1668  1  0.37500000  0.50000000  0.25000000  1
  V  V1669  1  0.37500000  0.50000000  0.31250000  1
  V  V1670  1  0.37500000  0.50000000  0.37500000  1
  Ti  Ti1671  1  0.37500000  0.50000000  0.43750000  1
  V  V1672  1  0.37500000  0.50000000  0.50000000  1
  V  V1673  1  0.37500000  0.50000000  0.56250000  1
  V  V1674  1  0.37500000  0.50000000  0.62500000  1
  Cr  Cr1675  1  0.37500000  0.50000000  0.68750000  1
  V  V1676  1  0.37500000  0.50000000  0.75000000  1
  Ti  Ti1677  1  0.37500000  0.50000000  0.81250000  1
  Ti  Ti1678  1  0.37500000  0.50000000  0.87500000  1
  V  V1679  1  0.37500000  0.50000000  0.93750000  1
  Ti  Ti1680  1  0.37500000  0.56250000  0.00000000  1
  V  V1681  1  0.37500000  0.56250000  0.06250000  1
  Ti  Ti1682  1  0.37500000  0.56250000  0.12500000  1
  Ti  Ti1683  1  0.37500000  0.56250000  0.18750000  1
  V  V1684  1  0.37500000  0.56250000  0.25000000  1
  Ti  Ti1685  1  0.37500000  0.56250000  0.31250000  1
  V  V1686  1  0.37500000  0.56250000  0.37500000  1
  V  V1687  1  0.37500000  0.56250000  0.43750000  1
  Ti  Ti1688  1  0.37500000  0.56250000  0.50000000  1
  V  V1689  1  0.37500000  0.56250000  0.56250000  1
  V  V1690  1  0.37500000  0.56250000  0.62500000  1
  Ti  Ti1691  1  0.37500000  0.56250000  0.68750000  1
  Ti  Ti1692  1  0.37500000  0.56250000  0.75000000  1
  Ti  Ti1693  1  0.37500000  0.56250000  0.81250000  1
  Ti  Ti1694  1  0.37500000  0.56250000  0.87500000  1
  V  V1695  1  0.37500000  0.56250000  0.93750000  1
  Ti  Ti1696  1  0.37500000  0.62500000  0.00000000  1
  Cr  Cr1697  1  0.37500000  0.62500000  0.06250000  1
  V  V1698  1  0.37500000  0.62500000  0.12500000  1
  V  V1699  1  0.37500000  0.62500000  0.18750000  1
  V  V1700  1  0.37500000  0.62500000  0.25000000  1
  Ti  Ti1701  1  0.37500000  0.62500000  0.31250000  1
  Ti  Ti1702  1  0.37500000  0.62500000  0.37500000  1
  V  V1703  1  0.37500000  0.62500000  0.43750000  1
  V  V1704  1  0.37500000  0.62500000  0.50000000  1
  Ti  Ti1705  1  0.37500000  0.62500000  0.56250000  1
  V  V1706  1  0.37500000  0.62500000  0.62500000  1
  V  V1707  1  0.37500000  0.62500000  0.68750000  1
  V  V1708  1  0.37500000  0.62500000  0.75000000  1
  V  V1709  1  0.37500000  0.62500000  0.81250000  1
  Cr  Cr1710  1  0.37500000  0.62500000  0.87500000  1
  Ti  Ti1711  1  0.37500000  0.62500000  0.93750000  1
  V  V1712  1  0.37500000  0.68750000  0.00000000  1
  V  V1713  1  0.37500000  0.68750000  0.06250000  1
  V  V1714  1  0.37500000  0.68750000  0.12500000  1
  Ti  Ti1715  1  0.37500000  0.68750000  0.18750000  1
  V  V1716  1  0.37500000  0.68750000  0.25000000  1
  V  V1717  1  0.37500000  0.68750000  0.31250000  1
  V  V1718  1  0.37500000  0.68750000  0.37500000  1
  Cr  Cr1719  1  0.37500000  0.68750000  0.43750000  1
  Ti  Ti1720  1  0.37500000  0.68750000  0.50000000  1
  Ti  Ti1721  1  0.37500000  0.68750000  0.56250000  1
  V  V1722  1  0.37500000  0.68750000  0.62500000  1
  Ti  Ti1723  1  0.37500000  0.68750000  0.68750000  1
  Cr  Cr1724  1  0.37500000  0.68750000  0.75000000  1
  V  V1725  1  0.37500000  0.68750000  0.81250000  1
  Ti  Ti1726  1  0.37500000  0.68750000  0.87500000  1
  Ti  Ti1727  1  0.37500000  0.68750000  0.93750000  1
  V  V1728  1  0.37500000  0.75000000  0.00000000  1
  V  V1729  1  0.37500000  0.75000000  0.06250000  1
  V  V1730  1  0.37500000  0.75000000  0.12500000  1
  Ti  Ti1731  1  0.37500000  0.75000000  0.18750000  1
  Ti  Ti1732  1  0.37500000  0.75000000  0.25000000  1
  V  V1733  1  0.37500000  0.75000000  0.31250000  1
  Ti  Ti1734  1  0.37500000  0.75000000  0.37500000  1
  V  V1735  1  0.37500000  0.75000000  0.43750000  1
  Cr  Cr1736  1  0.37500000  0.75000000  0.50000000  1
  V  V1737  1  0.37500000  0.75000000  0.56250000  1
  V  V1738  1  0.37500000  0.75000000  0.62500000  1
  V  V1739  1  0.37500000  0.75000000  0.68750000  1
  Cr  Cr1740  1  0.37500000  0.75000000  0.75000000  1
  V  V1741  1  0.37500000  0.75000000  0.81250000  1
  Ti  Ti1742  1  0.37500000  0.75000000  0.87500000  1
  V  V1743  1  0.37500000  0.75000000  0.93750000  1
  V  V1744  1  0.37500000  0.81250000  0.00000000  1
  V  V1745  1  0.37500000  0.81250000  0.06250000  1
  Ti  Ti1746  1  0.37500000  0.81250000  0.12500000  1
  V  V1747  1  0.37500000  0.81250000  0.18750000  1
  Ti  Ti1748  1  0.37500000  0.81250000  0.25000000  1
  V  V1749  1  0.37500000  0.81250000  0.31250000  1
  V  V1750  1  0.37500000  0.81250000  0.37500000  1
  V  V1751  1  0.37500000  0.81250000  0.43750000  1
  V  V1752  1  0.37500000  0.81250000  0.50000000  1
  Cr  Cr1753  1  0.37500000  0.81250000  0.56250000  1
  V  V1754  1  0.37500000  0.81250000  0.62500000  1
  Ti  Ti1755  1  0.37500000  0.81250000  0.68750000  1
  V  V1756  1  0.37500000  0.81250000  0.75000000  1
  Ti  Ti1757  1  0.37500000  0.81250000  0.81250000  1
  V  V1758  1  0.37500000  0.81250000  0.87500000  1
  Ti  Ti1759  1  0.37500000  0.81250000  0.93750000  1
  Cr  Cr1760  1  0.37500000  0.87500000  0.00000000  1
  V  V1761  1  0.37500000  0.87500000  0.06250000  1
  Ti  Ti1762  1  0.37500000  0.87500000  0.12500000  1
  V  V1763  1  0.37500000  0.87500000  0.18750000  1
  Ti  Ti1764  1  0.37500000  0.87500000  0.25000000  1
  Ti  Ti1765  1  0.37500000  0.87500000  0.31250000  1
  Cr  Cr1766  1  0.37500000  0.87500000  0.37500000  1
  V  V1767  1  0.37500000  0.87500000  0.43750000  1
  V  V1768  1  0.37500000  0.87500000  0.50000000  1
  Cr  Cr1769  1  0.37500000  0.87500000  0.56250000  1
  V  V1770  1  0.37500000  0.87500000  0.62500000  1
  Cr  Cr1771  1  0.37500000  0.87500000  0.68750000  1
  V  V1772  1  0.37500000  0.87500000  0.75000000  1
  Ti  Ti1773  1  0.37500000  0.87500000  0.81250000  1
  Ti  Ti1774  1  0.37500000  0.87500000  0.87500000  1
  V  V1775  1  0.37500000  0.87500000  0.93750000  1
  V  V1776  1  0.37500000  0.93750000  0.00000000  1
  V  V1777  1  0.37500000  0.93750000  0.06250000  1
  V  V1778  1  0.37500000  0.93750000  0.12500000  1
  V  V1779  1  0.37500000  0.93750000  0.18750000  1
  Ti  Ti1780  1  0.37500000  0.93750000  0.25000000  1
  Cr  Cr1781  1  0.37500000  0.93750000  0.31250000  1
  V  V1782  1  0.37500000  0.93750000  0.37500000  1
  Cr  Cr1783  1  0.37500000  0.93750000  0.43750000  1
  V  V1784  1  0.37500000  0.93750000  0.50000000  1
  V  V1785  1  0.37500000  0.93750000  0.56250000  1
  Ti  Ti1786  1  0.37500000  0.93750000  0.62500000  1
  V  V1787  1  0.37500000  0.93750000  0.68750000  1
  V  V1788  1  0.37500000  0.93750000  0.75000000  1
  V  V1789  1  0.37500000  0.93750000  0.81250000  1
  V  V1790  1  0.37500000  0.93750000  0.87500000  1
  Ti  Ti1791  1  0.37500000  0.93750000  0.93750000  1
  Ti  Ti1792  1  0.43750000  0.00000000  0.00000000  1
  V  V1793  1  0.43750000  0.00000000  0.06250000  1
  Cr  Cr1794  1  0.43750000  0.00000000  0.12500000  1
  Cr  Cr1795  1  0.43750000  0.00000000  0.18750000  1
  V  V1796  1  0.43750000  0.00000000  0.25000000  1
  Cr  Cr1797  1  0.43750000  0.00000000  0.31250000  1
  Ti  Ti1798  1  0.43750000  0.00000000  0.37500000  1
  V  V1799  1  0.43750000  0.00000000  0.43750000  1
  V  V1800  1  0.43750000  0.00000000  0.50000000  1
  V  V1801  1  0.43750000  0.00000000  0.56250000  1
  V  V1802  1  0.43750000  0.00000000  0.62500000  1
  Ti  Ti1803  1  0.43750000  0.00000000  0.68750000  1
  Ti  Ti1804  1  0.43750000  0.00000000  0.75000000  1
  V  V1805  1  0.43750000  0.00000000  0.81250000  1
  V  V1806  1  0.43750000  0.00000000  0.87500000  1
  Ti  Ti1807  1  0.43750000  0.00000000  0.93750000  1
  V  V1808  1  0.43750000  0.06250000  0.00000000  1
  V  V1809  1  0.43750000  0.06250000  0.06250000  1
  Ti  Ti1810  1  0.43750000  0.06250000  0.12500000  1
  V  V1811  1  0.43750000  0.06250000  0.18750000  1
  V  V1812  1  0.43750000  0.06250000  0.25000000  1
  V  V1813  1  0.43750000  0.06250000  0.31250000  1
  V  V1814  1  0.43750000  0.06250000  0.37500000  1
  Ti  Ti1815  1  0.43750000  0.06250000  0.43750000  1
  V  V1816  1  0.43750000  0.06250000  0.50000000  1
  V  V1817  1  0.43750000  0.06250000  0.56250000  1
  V  V1818  1  0.43750000  0.06250000  0.62500000  1
  Cr  Cr1819  1  0.43750000  0.06250000  0.68750000  1
  Ti  Ti1820  1  0.43750000  0.06250000  0.75000000  1
  Ti  Ti1821  1  0.43750000  0.06250000  0.81250000  1
  V  V1822  1  0.43750000  0.06250000  0.87500000  1
  V  V1823  1  0.43750000  0.06250000  0.93750000  1
  V  V1824  1  0.43750000  0.12500000  0.00000000  1
  V  V1825  1  0.43750000  0.12500000  0.06250000  1
  Cr  Cr1826  1  0.43750000  0.12500000  0.12500000  1
  V  V1827  1  0.43750000  0.12500000  0.18750000  1
  V  V1828  1  0.43750000  0.12500000  0.25000000  1
  V  V1829  1  0.43750000  0.12500000  0.31250000  1
  V  V1830  1  0.43750000  0.12500000  0.37500000  1
  V  V1831  1  0.43750000  0.12500000  0.43750000  1
  Ti  Ti1832  1  0.43750000  0.12500000  0.50000000  1
  V  V1833  1  0.43750000  0.12500000  0.56250000  1
  V  V1834  1  0.43750000  0.12500000  0.62500000  1
  V  V1835  1  0.43750000  0.12500000  0.68750000  1
  Ti  Ti1836  1  0.43750000  0.12500000  0.75000000  1
  Ti  Ti1837  1  0.43750000  0.12500000  0.81250000  1
  V  V1838  1  0.43750000  0.12500000  0.87500000  1
  Ti  Ti1839  1  0.43750000  0.12500000  0.93750000  1
  Ti  Ti1840  1  0.43750000  0.18750000  0.00000000  1
  V  V1841  1  0.43750000  0.18750000  0.06250000  1
  V  V1842  1  0.43750000  0.18750000  0.12500000  1
  Ti  Ti1843  1  0.43750000  0.18750000  0.18750000  1
  Ti  Ti1844  1  0.43750000  0.18750000  0.25000000  1
  V  V1845  1  0.43750000  0.18750000  0.31250000  1
  V  V1846  1  0.43750000  0.18750000  0.37500000  1
  V  V1847  1  0.43750000  0.18750000  0.43750000  1
  Cr  Cr1848  1  0.43750000  0.18750000  0.50000000  1
  Ti  Ti1849  1  0.43750000  0.18750000  0.56250000  1
  V  V1850  1  0.43750000  0.18750000  0.62500000  1
  V  V1851  1  0.43750000  0.18750000  0.68750000  1
  V  V1852  1  0.43750000  0.18750000  0.75000000  1
  Ti  Ti1853  1  0.43750000  0.18750000  0.81250000  1
  V  V1854  1  0.43750000  0.18750000  0.87500000  1
  Ti  Ti1855  1  0.43750000  0.18750000  0.93750000  1
  V  V1856  1  0.43750000  0.25000000  0.00000000  1
  Ti  Ti1857  1  0.43750000  0.25000000  0.06250000  1
  Ti  Ti1858  1  0.43750000  0.25000000  0.12500000  1
  Ti  Ti1859  1  0.43750000  0.25000000  0.18750000  1
  Cr  Cr1860  1  0.43750000  0.25000000  0.25000000  1
  Ti  Ti1861  1  0.43750000  0.25000000  0.31250000  1
  V  V1862  1  0.43750000  0.25000000  0.37500000  1
  V  V1863  1  0.43750000  0.25000000  0.43750000  1
  V  V1864  1  0.43750000  0.25000000  0.50000000  1
  V  V1865  1  0.43750000  0.25000000  0.56250000  1
  V  V1866  1  0.43750000  0.25000000  0.62500000  1
  V  V1867  1  0.43750000  0.25000000  0.68750000  1
  V  V1868  1  0.43750000  0.25000000  0.75000000  1
  V  V1869  1  0.43750000  0.25000000  0.81250000  1
  Ti  Ti1870  1  0.43750000  0.25000000  0.87500000  1
  V  V1871  1  0.43750000  0.25000000  0.93750000  1
  V  V1872  1  0.43750000  0.31250000  0.00000000  1
  V  V1873  1  0.43750000  0.31250000  0.06250000  1
  Ti  Ti1874  1  0.43750000  0.31250000  0.12500000  1
  V  V1875  1  0.43750000  0.31250000  0.18750000  1
  Ti  Ti1876  1  0.43750000  0.31250000  0.25000000  1
  V  V1877  1  0.43750000  0.31250000  0.31250000  1
  Ti  Ti1878  1  0.43750000  0.31250000  0.37500000  1
  Ti  Ti1879  1  0.43750000  0.31250000  0.43750000  1
  V  V1880  1  0.43750000  0.31250000  0.50000000  1
  V  V1881  1  0.43750000  0.31250000  0.56250000  1
  Ti  Ti1882  1  0.43750000  0.31250000  0.62500000  1
  V  V1883  1  0.43750000  0.31250000  0.68750000  1
  V  V1884  1  0.43750000  0.31250000  0.75000000  1
  V  V1885  1  0.43750000  0.31250000  0.81250000  1
  V  V1886  1  0.43750000  0.31250000  0.87500000  1
  V  V1887  1  0.43750000  0.31250000  0.93750000  1
  Ti  Ti1888  1  0.43750000  0.37500000  0.00000000  1
  V  V1889  1  0.43750000  0.37500000  0.06250000  1
  V  V1890  1  0.43750000  0.37500000  0.12500000  1
  V  V1891  1  0.43750000  0.37500000  0.18750000  1
  Ti  Ti1892  1  0.43750000  0.37500000  0.25000000  1
  Ti  Ti1893  1  0.43750000  0.37500000  0.31250000  1
  Cr  Cr1894  1  0.43750000  0.37500000  0.37500000  1
  V  V1895  1  0.43750000  0.37500000  0.43750000  1
  Cr  Cr1896  1  0.43750000  0.37500000  0.50000000  1
  V  V1897  1  0.43750000  0.37500000  0.56250000  1
  Cr  Cr1898  1  0.43750000  0.37500000  0.62500000  1
  V  V1899  1  0.43750000  0.37500000  0.68750000  1
  Ti  Ti1900  1  0.43750000  0.37500000  0.75000000  1
  V  V1901  1  0.43750000  0.37500000  0.81250000  1
  Ti  Ti1902  1  0.43750000  0.37500000  0.87500000  1
  Ti  Ti1903  1  0.43750000  0.37500000  0.93750000  1
  V  V1904  1  0.43750000  0.43750000  0.00000000  1
  V  V1905  1  0.43750000  0.43750000  0.06250000  1
  V  V1906  1  0.43750000  0.43750000  0.12500000  1
  V  V1907  1  0.43750000  0.43750000  0.18750000  1
  V  V1908  1  0.43750000  0.43750000  0.25000000  1
  Cr  Cr1909  1  0.43750000  0.43750000  0.31250000  1
  V  V1910  1  0.43750000  0.43750000  0.37500000  1
  V  V1911  1  0.43750000  0.43750000  0.43750000  1
  Ti  Ti1912  1  0.43750000  0.43750000  0.50000000  1
  V  V1913  1  0.43750000  0.43750000  0.56250000  1
  V  V1914  1  0.43750000  0.43750000  0.62500000  1
  V  V1915  1  0.43750000  0.43750000  0.68750000  1
  V  V1916  1  0.43750000  0.43750000  0.75000000  1
  Ti  Ti1917  1  0.43750000  0.43750000  0.81250000  1
  V  V1918  1  0.43750000  0.43750000  0.87500000  1
  Ti  Ti1919  1  0.43750000  0.43750000  0.93750000  1
  Ti  Ti1920  1  0.43750000  0.50000000  0.00000000  1
  V  V1921  1  0.43750000  0.50000000  0.06250000  1
  Cr  Cr1922  1  0.43750000  0.50000000  0.12500000  1
  Ti  Ti1923  1  0.43750000  0.50000000  0.18750000  1
  V  V1924  1  0.43750000  0.50000000  0.25000000  1
  V  V1925  1  0.43750000  0.50000000  0.31250000  1
  V  V1926  1  0.43750000  0.50000000  0.37500000  1
  V  V1927  1  0.43750000  0.50000000  0.43750000  1
  Ti  Ti1928  1  0.43750000  0.50000000  0.50000000  1
  V  V1929  1  0.43750000  0.50000000  0.56250000  1
  V  V1930  1  0.43750000  0.50000000  0.62500000  1
  V  V1931  1  0.43750000  0.50000000  0.68750000  1
  Cr  Cr1932  1  0.43750000  0.50000000  0.75000000  1
  V  V1933  1  0.43750000  0.50000000  0.81250000  1
  Cr  Cr1934  1  0.43750000  0.50000000  0.87500000  1
  Ti  Ti1935  1  0.43750000  0.50000000  0.93750000  1
  Ti  Ti1936  1  0.43750000  0.56250000  0.00000000  1
  V  V1937  1  0.43750000  0.56250000  0.06250000  1
  V  V1938  1  0.43750000  0.56250000  0.12500000  1
  Cr  Cr1939  1  0.43750000  0.56250000  0.18750000  1
  V  V1940  1  0.43750000  0.56250000  0.25000000  1
  V  V1941  1  0.43750000  0.56250000  0.31250000  1
  Ti  Ti1942  1  0.43750000  0.56250000  0.37500000  1
  V  V1943  1  0.43750000  0.56250000  0.43750000  1
  V  V1944  1  0.43750000  0.56250000  0.50000000  1
  Ti  Ti1945  1  0.43750000  0.56250000  0.56250000  1
  V  V1946  1  0.43750000  0.56250000  0.62500000  1
  Ti  Ti1947  1  0.43750000  0.56250000  0.68750000  1
  V  V1948  1  0.43750000  0.56250000  0.75000000  1
  Ti  Ti1949  1  0.43750000  0.56250000  0.81250000  1
  V  V1950  1  0.43750000  0.56250000  0.87500000  1
  Ti  Ti1951  1  0.43750000  0.56250000  0.93750000  1
  Ti  Ti1952  1  0.43750000  0.62500000  0.00000000  1
  V  V1953  1  0.43750000  0.62500000  0.06250000  1
  Ti  Ti1954  1  0.43750000  0.62500000  0.12500000  1
  V  V1955  1  0.43750000  0.62500000  0.18750000  1
  Ti  Ti1956  1  0.43750000  0.62500000  0.25000000  1
  V  V1957  1  0.43750000  0.62500000  0.31250000  1
  V  V1958  1  0.43750000  0.62500000  0.37500000  1
  V  V1959  1  0.43750000  0.62500000  0.43750000  1
  Ti  Ti1960  1  0.43750000  0.62500000  0.50000000  1
  V  V1961  1  0.43750000  0.62500000  0.56250000  1
  V  V1962  1  0.43750000  0.62500000  0.62500000  1
  Ti  Ti1963  1  0.43750000  0.62500000  0.68750000  1
  Ti  Ti1964  1  0.43750000  0.62500000  0.75000000  1
  Cr  Cr1965  1  0.43750000  0.62500000  0.81250000  1
  Ti  Ti1966  1  0.43750000  0.62500000  0.87500000  1
  V  V1967  1  0.43750000  0.62500000  0.93750000  1
  V  V1968  1  0.43750000  0.68750000  0.00000000  1
  V  V1969  1  0.43750000  0.68750000  0.06250000  1
  V  V1970  1  0.43750000  0.68750000  0.12500000  1
  Cr  Cr1971  1  0.43750000  0.68750000  0.18750000  1
  V  V1972  1  0.43750000  0.68750000  0.25000000  1
  Ti  Ti1973  1  0.43750000  0.68750000  0.31250000  1
  V  V1974  1  0.43750000  0.68750000  0.37500000  1
  V  V1975  1  0.43750000  0.68750000  0.43750000  1
  Ti  Ti1976  1  0.43750000  0.68750000  0.50000000  1
  Ti  Ti1977  1  0.43750000  0.68750000  0.56250000  1
  V  V1978  1  0.43750000  0.68750000  0.62500000  1
  V  V1979  1  0.43750000  0.68750000  0.68750000  1
  V  V1980  1  0.43750000  0.68750000  0.75000000  1
  V  V1981  1  0.43750000  0.68750000  0.81250000  1
  Ti  Ti1982  1  0.43750000  0.68750000  0.87500000  1
  Ti  Ti1983  1  0.43750000  0.68750000  0.93750000  1
  V  V1984  1  0.43750000  0.75000000  0.00000000  1
  V  V1985  1  0.43750000  0.75000000  0.06250000  1
  V  V1986  1  0.43750000  0.75000000  0.12500000  1
  Ti  Ti1987  1  0.43750000  0.75000000  0.18750000  1
  V  V1988  1  0.43750000  0.75000000  0.25000000  1
  V  V1989  1  0.43750000  0.75000000  0.31250000  1
  Ti  Ti1990  1  0.43750000  0.75000000  0.37500000  1
  Ti  Ti1991  1  0.43750000  0.75000000  0.43750000  1
  V  V1992  1  0.43750000  0.75000000  0.50000000  1
  V  V1993  1  0.43750000  0.75000000  0.56250000  1
  V  V1994  1  0.43750000  0.75000000  0.62500000  1
  V  V1995  1  0.43750000  0.75000000  0.68750000  1
  Ti  Ti1996  1  0.43750000  0.75000000  0.75000000  1
  Ti  Ti1997  1  0.43750000  0.75000000  0.81250000  1
  V  V1998  1  0.43750000  0.75000000  0.87500000  1
  Ti  Ti1999  1  0.43750000  0.75000000  0.93750000  1
  Ti  Ti2000  1  0.43750000  0.81250000  0.00000000  1
  Ti  Ti2001  1  0.43750000  0.81250000  0.06250000  1
  V  V2002  1  0.43750000  0.81250000  0.12500000  1
  V  V2003  1  0.43750000  0.81250000  0.18750000  1
  Ti  Ti2004  1  0.43750000  0.81250000  0.25000000  1
  Cr  Cr2005  1  0.43750000  0.81250000  0.31250000  1
  Ti  Ti2006  1  0.43750000  0.81250000  0.37500000  1
  V  V2007  1  0.43750000  0.81250000  0.43750000  1
  V  V2008  1  0.43750000  0.81250000  0.50000000  1
  Ti  Ti2009  1  0.43750000  0.81250000  0.56250000  1
  Ti  Ti2010  1  0.43750000  0.81250000  0.62500000  1
  V  V2011  1  0.43750000  0.81250000  0.68750000  1
  Ti  Ti2012  1  0.43750000  0.81250000  0.75000000  1
  Ti  Ti2013  1  0.43750000  0.81250000  0.81250000  1
  V  V2014  1  0.43750000  0.81250000  0.87500000  1
  Ti  Ti2015  1  0.43750000  0.81250000  0.93750000  1
  V  V2016  1  0.43750000  0.87500000  0.00000000  1
  Ti  Ti2017  1  0.43750000  0.87500000  0.06250000  1
  Ti  Ti2018  1  0.43750000  0.87500000  0.12500000  1
  Ti  Ti2019  1  0.43750000  0.87500000  0.18750000  1
  V  V2020  1  0.43750000  0.87500000  0.25000000  1
  Ti  Ti2021  1  0.43750000  0.87500000  0.31250000  1
  Cr  Cr2022  1  0.43750000  0.87500000  0.37500000  1
  Ti  Ti2023  1  0.43750000  0.87500000  0.43750000  1
  V  V2024  1  0.43750000  0.87500000  0.50000000  1
  Cr  Cr2025  1  0.43750000  0.87500000  0.56250000  1
  V  V2026  1  0.43750000  0.87500000  0.62500000  1
  Ti  Ti2027  1  0.43750000  0.87500000  0.68750000  1
  Ti  Ti2028  1  0.43750000  0.87500000  0.75000000  1
  V  V2029  1  0.43750000  0.87500000  0.81250000  1
  V  V2030  1  0.43750000  0.87500000  0.87500000  1
  V  V2031  1  0.43750000  0.87500000  0.93750000  1
  V  V2032  1  0.43750000  0.93750000  0.00000000  1
  Ti  Ti2033  1  0.43750000  0.93750000  0.06250000  1
  V  V2034  1  0.43750000  0.93750000  0.12500000  1
  V  V2035  1  0.43750000  0.93750000  0.18750000  1
  Ti  Ti2036  1  0.43750000  0.93750000  0.25000000  1
  V  V2037  1  0.43750000  0.93750000  0.31250000  1
  Ti  Ti2038  1  0.43750000  0.93750000  0.37500000  1
  Cr  Cr2039  1  0.43750000  0.93750000  0.43750000  1
  V  V2040  1  0.43750000  0.93750000  0.50000000  1
  Ti  Ti2041  1  0.43750000  0.93750000  0.56250000  1
  V  V2042  1  0.43750000  0.93750000  0.62500000  1
  V  V2043  1  0.43750000  0.93750000  0.68750000  1
  V  V2044  1  0.43750000  0.93750000  0.75000000  1
  Ti  Ti2045  1  0.43750000  0.93750000  0.81250000  1
  Ti  Ti2046  1  0.43750000  0.93750000  0.87500000  1
  V  V2047  1  0.43750000  0.93750000  0.93750000  1
  V  V2048  1  0.50000000  0.00000000  0.00000000  1
  V  V2049  1  0.50000000  0.00000000  0.06250000  1
  V  V2050  1  0.50000000  0.00000000  0.12500000  1
  V  V2051  1  0.50000000  0.00000000  0.18750000  1
  V  V2052  1  0.50000000  0.00000000  0.25000000  1
  Ti  Ti2053  1  0.50000000  0.00000000  0.31250000  1
  Ti  Ti2054  1  0.50000000  0.00000000  0.37500000  1
  V  V2055  1  0.50000000  0.00000000  0.43750000  1
  V  V2056  1  0.50000000  0.00000000  0.50000000  1
  Cr  Cr2057  1  0.50000000  0.00000000  0.56250000  1
  Ti  Ti2058  1  0.50000000  0.00000000  0.62500000  1
  V  V2059  1  0.50000000  0.00000000  0.68750000  1
  Cr  Cr2060  1  0.50000000  0.00000000  0.75000000  1
  V  V2061  1  0.50000000  0.00000000  0.81250000  1
  Ti  Ti2062  1  0.50000000  0.00000000  0.87500000  1
  V  V2063  1  0.50000000  0.00000000  0.93750000  1
  V  V2064  1  0.50000000  0.06250000  0.00000000  1
  V  V2065  1  0.50000000  0.06250000  0.06250000  1
  V  V2066  1  0.50000000  0.06250000  0.12500000  1
  Ti  Ti2067  1  0.50000000  0.06250000  0.18750000  1
  V  V2068  1  0.50000000  0.06250000  0.25000000  1
  Ti  Ti2069  1  0.50000000  0.06250000  0.31250000  1
  V  V2070  1  0.50000000  0.06250000  0.37500000  1
  Ti  Ti2071  1  0.50000000  0.06250000  0.43750000  1
  V  V2072  1  0.50000000  0.06250000  0.50000000  1
  V  V2073  1  0.50000000  0.06250000  0.56250000  1
  V  V2074  1  0.50000000  0.06250000  0.62500000  1
  V  V2075  1  0.50000000  0.06250000  0.68750000  1
  V  V2076  1  0.50000000  0.06250000  0.75000000  1
  V  V2077  1  0.50000000  0.06250000  0.81250000  1
  V  V2078  1  0.50000000  0.06250000  0.87500000  1
  V  V2079  1  0.50000000  0.06250000  0.93750000  1
  V  V2080  1  0.50000000  0.12500000  0.00000000  1
  V  V2081  1  0.50000000  0.12500000  0.06250000  1
  V  V2082  1  0.50000000  0.12500000  0.12500000  1
  V  V2083  1  0.50000000  0.12500000  0.18750000  1
  Ti  Ti2084  1  0.50000000  0.12500000  0.25000000  1
  V  V2085  1  0.50000000  0.12500000  0.31250000  1
  Cr  Cr2086  1  0.50000000  0.12500000  0.37500000  1
  V  V2087  1  0.50000000  0.12500000  0.43750000  1
  V  V2088  1  0.50000000  0.12500000  0.50000000  1
  V  V2089  1  0.50000000  0.12500000  0.56250000  1
  Ti  Ti2090  1  0.50000000  0.12500000  0.62500000  1
  V  V2091  1  0.50000000  0.12500000  0.68750000  1
  Ti  Ti2092  1  0.50000000  0.12500000  0.75000000  1
  V  V2093  1  0.50000000  0.12500000  0.81250000  1
  V  V2094  1  0.50000000  0.12500000  0.87500000  1
  V  V2095  1  0.50000000  0.12500000  0.93750000  1
  V  V2096  1  0.50000000  0.18750000  0.00000000  1
  V  V2097  1  0.50000000  0.18750000  0.06250000  1
  Ti  Ti2098  1  0.50000000  0.18750000  0.12500000  1
  Ti  Ti2099  1  0.50000000  0.18750000  0.18750000  1
  V  V2100  1  0.50000000  0.18750000  0.25000000  1
  V  V2101  1  0.50000000  0.18750000  0.31250000  1
  V  V2102  1  0.50000000  0.18750000  0.37500000  1
  V  V2103  1  0.50000000  0.18750000  0.43750000  1
  Cr  Cr2104  1  0.50000000  0.18750000  0.50000000  1
  Cr  Cr2105  1  0.50000000  0.18750000  0.56250000  1
  Ti  Ti2106  1  0.50000000  0.18750000  0.62500000  1
  Ti  Ti2107  1  0.50000000  0.18750000  0.68750000  1
  V  V2108  1  0.50000000  0.18750000  0.75000000  1
  Ti  Ti2109  1  0.50000000  0.18750000  0.81250000  1
  Ti  Ti2110  1  0.50000000  0.18750000  0.87500000  1
  Cr  Cr2111  1  0.50000000  0.18750000  0.93750000  1
  V  V2112  1  0.50000000  0.25000000  0.00000000  1
  V  V2113  1  0.50000000  0.25000000  0.06250000  1
  Ti  Ti2114  1  0.50000000  0.25000000  0.12500000  1
  V  V2115  1  0.50000000  0.25000000  0.18750000  1
  Ti  Ti2116  1  0.50000000  0.25000000  0.25000000  1
  Ti  Ti2117  1  0.50000000  0.25000000  0.31250000  1
  Ti  Ti2118  1  0.50000000  0.25000000  0.37500000  1
  Ti  Ti2119  1  0.50000000  0.25000000  0.43750000  1
  V  V2120  1  0.50000000  0.25000000  0.50000000  1
  V  V2121  1  0.50000000  0.25000000  0.56250000  1
  V  V2122  1  0.50000000  0.25000000  0.62500000  1
  Cr  Cr2123  1  0.50000000  0.25000000  0.68750000  1
  Ti  Ti2124  1  0.50000000  0.25000000  0.75000000  1
  V  V2125  1  0.50000000  0.25000000  0.81250000  1
  V  V2126  1  0.50000000  0.25000000  0.87500000  1
  V  V2127  1  0.50000000  0.25000000  0.93750000  1
  V  V2128  1  0.50000000  0.31250000  0.00000000  1
  Cr  Cr2129  1  0.50000000  0.31250000  0.06250000  1
  V  V2130  1  0.50000000  0.31250000  0.12500000  1
  Ti  Ti2131  1  0.50000000  0.31250000  0.18750000  1
  Ti  Ti2132  1  0.50000000  0.31250000  0.25000000  1
  Cr  Cr2133  1  0.50000000  0.31250000  0.31250000  1
  V  V2134  1  0.50000000  0.31250000  0.37500000  1
  Ti  Ti2135  1  0.50000000  0.31250000  0.43750000  1
  V  V2136  1  0.50000000  0.31250000  0.50000000  1
  Ti  Ti2137  1  0.50000000  0.31250000  0.56250000  1
  V  V2138  1  0.50000000  0.31250000  0.62500000  1
  V  V2139  1  0.50000000  0.31250000  0.68750000  1
  V  V2140  1  0.50000000  0.31250000  0.75000000  1
  V  V2141  1  0.50000000  0.31250000  0.81250000  1
  Ti  Ti2142  1  0.50000000  0.31250000  0.87500000  1
  Ti  Ti2143  1  0.50000000  0.31250000  0.93750000  1
  V  V2144  1  0.50000000  0.37500000  0.00000000  1
  Cr  Cr2145  1  0.50000000  0.37500000  0.06250000  1
  V  V2146  1  0.50000000  0.37500000  0.12500000  1
  V  V2147  1  0.50000000  0.37500000  0.18750000  1
  Ti  Ti2148  1  0.50000000  0.37500000  0.25000000  1
  V  V2149  1  0.50000000  0.37500000  0.31250000  1
  Ti  Ti2150  1  0.50000000  0.37500000  0.37500000  1
  Ti  Ti2151  1  0.50000000  0.37500000  0.43750000  1
  V  V2152  1  0.50000000  0.37500000  0.50000000  1
  V  V2153  1  0.50000000  0.37500000  0.56250000  1
  V  V2154  1  0.50000000  0.37500000  0.62500000  1
  V  V2155  1  0.50000000  0.37500000  0.68750000  1
  V  V2156  1  0.50000000  0.37500000  0.75000000  1
  V  V2157  1  0.50000000  0.37500000  0.81250000  1
  Cr  Cr2158  1  0.50000000  0.37500000  0.87500000  1
  V  V2159  1  0.50000000  0.37500000  0.93750000  1
  Ti  Ti2160  1  0.50000000  0.43750000  0.00000000  1
  Ti  Ti2161  1  0.50000000  0.43750000  0.06250000  1
  V  V2162  1  0.50000000  0.43750000  0.12500000  1
  V  V2163  1  0.50000000  0.43750000  0.18750000  1
  V  V2164  1  0.50000000  0.43750000  0.25000000  1
  V  V2165  1  0.50000000  0.43750000  0.31250000  1
  Cr  Cr2166  1  0.50000000  0.43750000  0.37500000  1
  V  V2167  1  0.50000000  0.43750000  0.43750000  1
  Ti  Ti2168  1  0.50000000  0.43750000  0.50000000  1
  V  V2169  1  0.50000000  0.43750000  0.56250000  1
  V  V2170  1  0.50000000  0.43750000  0.62500000  1
  V  V2171  1  0.50000000  0.43750000  0.68750000  1
  Ti  Ti2172  1  0.50000000  0.43750000  0.75000000  1
  V  V2173  1  0.50000000  0.43750000  0.81250000  1
  Ti  Ti2174  1  0.50000000  0.43750000  0.87500000  1
  Ti  Ti2175  1  0.50000000  0.43750000  0.93750000  1
  Ti  Ti2176  1  0.50000000  0.50000000  0.00000000  1
  Cr  Cr2177  1  0.50000000  0.50000000  0.06250000  1
  V  V2178  1  0.50000000  0.50000000  0.12500000  1
  V  V2179  1  0.50000000  0.50000000  0.18750000  1
  V  V2180  1  0.50000000  0.50000000  0.25000000  1
  Ti  Ti2181  1  0.50000000  0.50000000  0.31250000  1
  Ti  Ti2182  1  0.50000000  0.50000000  0.37500000  1
  V  V2183  1  0.50000000  0.50000000  0.43750000  1
  V  V2184  1  0.50000000  0.50000000  0.50000000  1
  V  V2185  1  0.50000000  0.50000000  0.56250000  1
  Cr  Cr2186  1  0.50000000  0.50000000  0.62500000  1
  V  V2187  1  0.50000000  0.50000000  0.68750000  1
  V  V2188  1  0.50000000  0.50000000  0.75000000  1
  V  V2189  1  0.50000000  0.50000000  0.81250000  1
  V  V2190  1  0.50000000  0.50000000  0.87500000  1
  Cr  Cr2191  1  0.50000000  0.50000000  0.93750000  1
  Ti  Ti2192  1  0.50000000  0.56250000  0.00000000  1
  V  V2193  1  0.50000000  0.56250000  0.06250000  1
  Ti  Ti2194  1  0.50000000  0.56250000  0.12500000  1
  Cr  Cr2195  1  0.50000000  0.56250000  0.18750000  1
  Ti  Ti2196  1  0.50000000  0.56250000  0.25000000  1
  V  V2197  1  0.50000000  0.56250000  0.31250000  1
  Cr  Cr2198  1  0.50000000  0.56250000  0.37500000  1
  V  V2199  1  0.50000000  0.56250000  0.43750000  1
  V  V2200  1  0.50000000  0.56250000  0.50000000  1
  Ti  Ti2201  1  0.50000000  0.56250000  0.56250000  1
  Ti  Ti2202  1  0.50000000  0.56250000  0.62500000  1
  V  V2203  1  0.50000000  0.56250000  0.68750000  1
  V  V2204  1  0.50000000  0.56250000  0.75000000  1
  Ti  Ti2205  1  0.50000000  0.56250000  0.81250000  1
  Cr  Cr2206  1  0.50000000  0.56250000  0.87500000  1
  Ti  Ti2207  1  0.50000000  0.56250000  0.93750000  1
  V  V2208  1  0.50000000  0.62500000  0.00000000  1
  Cr  Cr2209  1  0.50000000  0.62500000  0.06250000  1
  V  V2210  1  0.50000000  0.62500000  0.12500000  1
  V  V2211  1  0.50000000  0.62500000  0.18750000  1
  V  V2212  1  0.50000000  0.62500000  0.25000000  1
  V  V2213  1  0.50000000  0.62500000  0.31250000  1
  V  V2214  1  0.50000000  0.62500000  0.37500000  1
  V  V2215  1  0.50000000  0.62500000  0.43750000  1
  V  V2216  1  0.50000000  0.62500000  0.50000000  1
  Ti  Ti2217  1  0.50000000  0.62500000  0.56250000  1
  V  V2218  1  0.50000000  0.62500000  0.62500000  1
  V  V2219  1  0.50000000  0.62500000  0.68750000  1
  Ti  Ti2220  1  0.50000000  0.62500000  0.75000000  1
  V  V2221  1  0.50000000  0.62500000  0.81250000  1
  Ti  Ti2222  1  0.50000000  0.62500000  0.87500000  1
  V  V2223  1  0.50000000  0.62500000  0.93750000  1
  Ti  Ti2224  1  0.50000000  0.68750000  0.00000000  1
  V  V2225  1  0.50000000  0.68750000  0.06250000  1
  Ti  Ti2226  1  0.50000000  0.68750000  0.12500000  1
  Ti  Ti2227  1  0.50000000  0.68750000  0.18750000  1
  V  V2228  1  0.50000000  0.68750000  0.25000000  1
  V  V2229  1  0.50000000  0.68750000  0.31250000  1
  V  V2230  1  0.50000000  0.68750000  0.37500000  1
  Ti  Ti2231  1  0.50000000  0.68750000  0.43750000  1
  Ti  Ti2232  1  0.50000000  0.68750000  0.50000000  1
  Cr  Cr2233  1  0.50000000  0.68750000  0.56250000  1
  V  V2234  1  0.50000000  0.68750000  0.62500000  1
  V  V2235  1  0.50000000  0.68750000  0.68750000  1
  V  V2236  1  0.50000000  0.68750000  0.75000000  1
  Cr  Cr2237  1  0.50000000  0.68750000  0.81250000  1
  Ti  Ti2238  1  0.50000000  0.68750000  0.87500000  1
  V  V2239  1  0.50000000  0.68750000  0.93750000  1
  V  V2240  1  0.50000000  0.75000000  0.00000000  1
  V  V2241  1  0.50000000  0.75000000  0.06250000  1
  Cr  Cr2242  1  0.50000000  0.75000000  0.12500000  1
  V  V2243  1  0.50000000  0.75000000  0.18750000  1
  V  V2244  1  0.50000000  0.75000000  0.25000000  1
  Cr  Cr2245  1  0.50000000  0.75000000  0.31250000  1
  V  V2246  1  0.50000000  0.75000000  0.37500000  1
  V  V2247  1  0.50000000  0.75000000  0.43750000  1
  V  V2248  1  0.50000000  0.75000000  0.50000000  1
  V  V2249  1  0.50000000  0.75000000  0.56250000  1
  V  V2250  1  0.50000000  0.75000000  0.62500000  1
  V  V2251  1  0.50000000  0.75000000  0.68750000  1
  Ti  Ti2252  1  0.50000000  0.75000000  0.75000000  1
  V  V2253  1  0.50000000  0.75000000  0.81250000  1
  Ti  Ti2254  1  0.50000000  0.75000000  0.87500000  1
  V  V2255  1  0.50000000  0.75000000  0.93750000  1
  V  V2256  1  0.50000000  0.81250000  0.00000000  1
  V  V2257  1  0.50000000  0.81250000  0.06250000  1
  V  V2258  1  0.50000000  0.81250000  0.12500000  1
  V  V2259  1  0.50000000  0.81250000  0.18750000  1
  Ti  Ti2260  1  0.50000000  0.81250000  0.25000000  1
  Ti  Ti2261  1  0.50000000  0.81250000  0.31250000  1
  V  V2262  1  0.50000000  0.81250000  0.37500000  1
  V  V2263  1  0.50000000  0.81250000  0.43750000  1
  V  V2264  1  0.50000000  0.81250000  0.50000000  1
  Cr  Cr2265  1  0.50000000  0.81250000  0.56250000  1
  Ti  Ti2266  1  0.50000000  0.81250000  0.62500000  1
  V  V2267  1  0.50000000  0.81250000  0.68750000  1
  V  V2268  1  0.50000000  0.81250000  0.75000000  1
  Ti  Ti2269  1  0.50000000  0.81250000  0.81250000  1
  Ti  Ti2270  1  0.50000000  0.81250000  0.87500000  1
  Ti  Ti2271  1  0.50000000  0.81250000  0.93750000  1
  V  V2272  1  0.50000000  0.87500000  0.00000000  1
  Cr  Cr2273  1  0.50000000  0.87500000  0.06250000  1
  V  V2274  1  0.50000000  0.87500000  0.12500000  1
  V  V2275  1  0.50000000  0.87500000  0.18750000  1
  V  V2276  1  0.50000000  0.87500000  0.25000000  1
  V  V2277  1  0.50000000  0.87500000  0.31250000  1
  V  V2278  1  0.50000000  0.87500000  0.37500000  1
  V  V2279  1  0.50000000  0.87500000  0.43750000  1
  V  V2280  1  0.50000000  0.87500000  0.50000000  1
  Cr  Cr2281  1  0.50000000  0.87500000  0.56250000  1
  Cr  Cr2282  1  0.50000000  0.87500000  0.62500000  1
  Ti  Ti2283  1  0.50000000  0.87500000  0.68750000  1
  V  V2284  1  0.50000000  0.87500000  0.75000000  1
  V  V2285  1  0.50000000  0.87500000  0.81250000  1
  V  V2286  1  0.50000000  0.87500000  0.87500000  1
  V  V2287  1  0.50000000  0.87500000  0.93750000  1
  V  V2288  1  0.50000000  0.93750000  0.00000000  1
  Cr  Cr2289  1  0.50000000  0.93750000  0.06250000  1
  Ti  Ti2290  1  0.50000000  0.93750000  0.12500000  1
  Ti  Ti2291  1  0.50000000  0.93750000  0.18750000  1
  V  V2292  1  0.50000000  0.93750000  0.25000000  1
  V  V2293  1  0.50000000  0.93750000  0.31250000  1
  V  V2294  1  0.50000000  0.93750000  0.37500000  1
  V  V2295  1  0.50000000  0.93750000  0.43750000  1
  Ti  Ti2296  1  0.50000000  0.93750000  0.50000000  1
  Ti  Ti2297  1  0.50000000  0.93750000  0.56250000  1
  V  V2298  1  0.50000000  0.93750000  0.62500000  1
  V  V2299  1  0.50000000  0.93750000  0.68750000  1
  V  V2300  1  0.50000000  0.93750000  0.75000000  1
  Ti  Ti2301  1  0.50000000  0.93750000  0.81250000  1
  V  V2302  1  0.50000000  0.93750000  0.87500000  1
  V  V2303  1  0.50000000  0.93750000  0.93750000  1
  V  V2304  1  0.56250000  0.00000000  0.00000000  1
  V  V2305  1  0.56250000  0.00000000  0.06250000  1
  Ti  Ti2306  1  0.56250000  0.00000000  0.12500000  1
  V  V2307  1  0.56250000  0.00000000  0.18750000  1
  Cr  Cr2308  1  0.56250000  0.00000000  0.25000000  1
  Cr  Cr2309  1  0.56250000  0.00000000  0.31250000  1
  V  V2310  1  0.56250000  0.00000000  0.37500000  1
  Ti  Ti2311  1  0.56250000  0.00000000  0.43750000  1
  V  V2312  1  0.56250000  0.00000000  0.50000000  1
  V  V2313  1  0.56250000  0.00000000  0.56250000  1
  V  V2314  1  0.56250000  0.00000000  0.62500000  1
  Ti  Ti2315  1  0.56250000  0.00000000  0.68750000  1
  V  V2316  1  0.56250000  0.00000000  0.75000000  1
  V  V2317  1  0.56250000  0.00000000  0.81250000  1
  V  V2318  1  0.56250000  0.00000000  0.87500000  1
  Cr  Cr2319  1  0.56250000  0.00000000  0.93750000  1
  Ti  Ti2320  1  0.56250000  0.06250000  0.00000000  1
  Ti  Ti2321  1  0.56250000  0.06250000  0.06250000  1
  Cr  Cr2322  1  0.56250000  0.06250000  0.12500000  1
  V  V2323  1  0.56250000  0.06250000  0.18750000  1
  Ti  Ti2324  1  0.56250000  0.06250000  0.25000000  1
  Ti  Ti2325  1  0.56250000  0.06250000  0.31250000  1
  Ti  Ti2326  1  0.56250000  0.06250000  0.37500000  1
  V  V2327  1  0.56250000  0.06250000  0.43750000  1
  Cr  Cr2328  1  0.56250000  0.06250000  0.50000000  1
  V  V2329  1  0.56250000  0.06250000  0.56250000  1
  V  V2330  1  0.56250000  0.06250000  0.62500000  1
  V  V2331  1  0.56250000  0.06250000  0.68750000  1
  V  V2332  1  0.56250000  0.06250000  0.75000000  1
  V  V2333  1  0.56250000  0.06250000  0.81250000  1
  V  V2334  1  0.56250000  0.06250000  0.87500000  1
  Ti  Ti2335  1  0.56250000  0.06250000  0.93750000  1
  Ti  Ti2336  1  0.56250000  0.12500000  0.00000000  1
  Ti  Ti2337  1  0.56250000  0.12500000  0.06250000  1
  V  V2338  1  0.56250000  0.12500000  0.12500000  1
  Ti  Ti2339  1  0.56250000  0.12500000  0.18750000  1
  Cr  Cr2340  1  0.56250000  0.12500000  0.25000000  1
  V  V2341  1  0.56250000  0.12500000  0.31250000  1
  V  V2342  1  0.56250000  0.12500000  0.37500000  1
  V  V2343  1  0.56250000  0.12500000  0.43750000  1
  V  V2344  1  0.56250000  0.12500000  0.50000000  1
  Ti  Ti2345  1  0.56250000  0.12500000  0.56250000  1
  Cr  Cr2346  1  0.56250000  0.12500000  0.62500000  1
  Ti  Ti2347  1  0.56250000  0.12500000  0.68750000  1
  V  V2348  1  0.56250000  0.12500000  0.75000000  1
  Ti  Ti2349  1  0.56250000  0.12500000  0.81250000  1
  V  V2350  1  0.56250000  0.12500000  0.87500000  1
  V  V2351  1  0.56250000  0.12500000  0.93750000  1
  Ti  Ti2352  1  0.56250000  0.18750000  0.00000000  1
  Ti  Ti2353  1  0.56250000  0.18750000  0.06250000  1
  V  V2354  1  0.56250000  0.18750000  0.12500000  1
  V  V2355  1  0.56250000  0.18750000  0.18750000  1
  V  V2356  1  0.56250000  0.18750000  0.25000000  1
  V  V2357  1  0.56250000  0.18750000  0.31250000  1
  Ti  Ti2358  1  0.56250000  0.18750000  0.37500000  1
  V  V2359  1  0.56250000  0.18750000  0.43750000  1
  Ti  Ti2360  1  0.56250000  0.18750000  0.50000000  1
  Ti  Ti2361  1  0.56250000  0.18750000  0.56250000  1
  V  V2362  1  0.56250000  0.18750000  0.62500000  1
  Cr  Cr2363  1  0.56250000  0.18750000  0.68750000  1
  V  V2364  1  0.56250000  0.18750000  0.75000000  1
  V  V2365  1  0.56250000  0.18750000  0.81250000  1
  Ti  Ti2366  1  0.56250000  0.18750000  0.87500000  1
  V  V2367  1  0.56250000  0.18750000  0.93750000  1
  Ti  Ti2368  1  0.56250000  0.25000000  0.00000000  1
  Cr  Cr2369  1  0.56250000  0.25000000  0.06250000  1
  V  V2370  1  0.56250000  0.25000000  0.12500000  1
  Ti  Ti2371  1  0.56250000  0.25000000  0.18750000  1
  Ti  Ti2372  1  0.56250000  0.25000000  0.25000000  1
  V  V2373  1  0.56250000  0.25000000  0.31250000  1
  V  V2374  1  0.56250000  0.25000000  0.37500000  1
  V  V2375  1  0.56250000  0.25000000  0.43750000  1
  Ti  Ti2376  1  0.56250000  0.25000000  0.50000000  1
  Cr  Cr2377  1  0.56250000  0.25000000  0.56250000  1
  V  V2378  1  0.56250000  0.25000000  0.62500000  1
  V  V2379  1  0.56250000  0.25000000  0.68750000  1
  V  V2380  1  0.56250000  0.25000000  0.75000000  1
  Ti  Ti2381  1  0.56250000  0.25000000  0.81250000  1
  V  V2382  1  0.56250000  0.25000000  0.87500000  1
  V  V2383  1  0.56250000  0.25000000  0.93750000  1
  V  V2384  1  0.56250000  0.31250000  0.00000000  1
  V  V2385  1  0.56250000  0.31250000  0.06250000  1
  Ti  Ti2386  1  0.56250000  0.31250000  0.12500000  1
  V  V2387  1  0.56250000  0.31250000  0.18750000  1
  V  V2388  1  0.56250000  0.31250000  0.25000000  1
  Ti  Ti2389  1  0.56250000  0.31250000  0.31250000  1
  Ti  Ti2390  1  0.56250000  0.31250000  0.37500000  1
  V  V2391  1  0.56250000  0.31250000  0.43750000  1
  V  V2392  1  0.56250000  0.31250000  0.50000000  1
  V  V2393  1  0.56250000  0.31250000  0.56250000  1
  V  V2394  1  0.56250000  0.31250000  0.62500000  1
  V  V2395  1  0.56250000  0.31250000  0.68750000  1
  Ti  Ti2396  1  0.56250000  0.31250000  0.75000000  1
  V  V2397  1  0.56250000  0.31250000  0.81250000  1
  V  V2398  1  0.56250000  0.31250000  0.87500000  1
  Ti  Ti2399  1  0.56250000  0.31250000  0.93750000  1
  V  V2400  1  0.56250000  0.37500000  0.00000000  1
  V  V2401  1  0.56250000  0.37500000  0.06250000  1
  Ti  Ti2402  1  0.56250000  0.37500000  0.12500000  1
  V  V2403  1  0.56250000  0.37500000  0.18750000  1
  Ti  Ti2404  1  0.56250000  0.37500000  0.25000000  1
  V  V2405  1  0.56250000  0.37500000  0.31250000  1
  V  V2406  1  0.56250000  0.37500000  0.37500000  1
  Ti  Ti2407  1  0.56250000  0.37500000  0.43750000  1
  V  V2408  1  0.56250000  0.37500000  0.50000000  1
  V  V2409  1  0.56250000  0.37500000  0.56250000  1
  Ti  Ti2410  1  0.56250000  0.37500000  0.62500000  1
  V  V2411  1  0.56250000  0.37500000  0.68750000  1
  V  V2412  1  0.56250000  0.37500000  0.75000000  1
  Cr  Cr2413  1  0.56250000  0.37500000  0.81250000  1
  V  V2414  1  0.56250000  0.37500000  0.87500000  1
  Ti  Ti2415  1  0.56250000  0.37500000  0.93750000  1
  Ti  Ti2416  1  0.56250000  0.43750000  0.00000000  1
  V  V2417  1  0.56250000  0.43750000  0.06250000  1
  Ti  Ti2418  1  0.56250000  0.43750000  0.12500000  1
  Cr  Cr2419  1  0.56250000  0.43750000  0.18750000  1
  V  V2420  1  0.56250000  0.43750000  0.25000000  1
  V  V2421  1  0.56250000  0.43750000  0.31250000  1
  V  V2422  1  0.56250000  0.43750000  0.37500000  1
  Ti  Ti2423  1  0.56250000  0.43750000  0.43750000  1
  V  V2424  1  0.56250000  0.43750000  0.50000000  1
  V  V2425  1  0.56250000  0.43750000  0.56250000  1
  Ti  Ti2426  1  0.56250000  0.43750000  0.62500000  1
  Ti  Ti2427  1  0.56250000  0.43750000  0.68750000  1
  V  V2428  1  0.56250000  0.43750000  0.75000000  1
  V  V2429  1  0.56250000  0.43750000  0.81250000  1
  Ti  Ti2430  1  0.56250000  0.43750000  0.87500000  1
  V  V2431  1  0.56250000  0.43750000  0.93750000  1
  Ti  Ti2432  1  0.56250000  0.50000000  0.00000000  1
  V  V2433  1  0.56250000  0.50000000  0.06250000  1
  Ti  Ti2434  1  0.56250000  0.50000000  0.12500000  1
  V  V2435  1  0.56250000  0.50000000  0.18750000  1
  V  V2436  1  0.56250000  0.50000000  0.25000000  1
  Ti  Ti2437  1  0.56250000  0.50000000  0.31250000  1
  Cr  Cr2438  1  0.56250000  0.50000000  0.37500000  1
  V  V2439  1  0.56250000  0.50000000  0.43750000  1
  V  V2440  1  0.56250000  0.50000000  0.50000000  1
  V  V2441  1  0.56250000  0.50000000  0.56250000  1
  Ti  Ti2442  1  0.56250000  0.50000000  0.62500000  1
  V  V2443  1  0.56250000  0.50000000  0.68750000  1
  V  V2444  1  0.56250000  0.50000000  0.75000000  1
  V  V2445  1  0.56250000  0.50000000  0.81250000  1
  V  V2446  1  0.56250000  0.50000000  0.87500000  1
  V  V2447  1  0.56250000  0.50000000  0.93750000  1
  V  V2448  1  0.56250000  0.56250000  0.00000000  1
  Ti  Ti2449  1  0.56250000  0.56250000  0.06250000  1
  V  V2450  1  0.56250000  0.56250000  0.12500000  1
  Ti  Ti2451  1  0.56250000  0.56250000  0.18750000  1
  V  V2452  1  0.56250000  0.56250000  0.25000000  1
  Ti  Ti2453  1  0.56250000  0.56250000  0.31250000  1
  Ti  Ti2454  1  0.56250000  0.56250000  0.37500000  1
  Ti  Ti2455  1  0.56250000  0.56250000  0.43750000  1
  Ti  Ti2456  1  0.56250000  0.56250000  0.50000000  1
  Ti  Ti2457  1  0.56250000  0.56250000  0.56250000  1
  V  V2458  1  0.56250000  0.56250000  0.62500000  1
  V  V2459  1  0.56250000  0.56250000  0.68750000  1
  Ti  Ti2460  1  0.56250000  0.56250000  0.75000000  1
  Ti  Ti2461  1  0.56250000  0.56250000  0.81250000  1
  V  V2462  1  0.56250000  0.56250000  0.87500000  1
  Cr  Cr2463  1  0.56250000  0.56250000  0.93750000  1
  Ti  Ti2464  1  0.56250000  0.62500000  0.00000000  1
  Cr  Cr2465  1  0.56250000  0.62500000  0.06250000  1
  Ti  Ti2466  1  0.56250000  0.62500000  0.12500000  1
  Ti  Ti2467  1  0.56250000  0.62500000  0.18750000  1
  Ti  Ti2468  1  0.56250000  0.62500000  0.25000000  1
  V  V2469  1  0.56250000  0.62500000  0.31250000  1
  V  V2470  1  0.56250000  0.62500000  0.37500000  1
  Ti  Ti2471  1  0.56250000  0.62500000  0.43750000  1
  Cr  Cr2472  1  0.56250000  0.62500000  0.50000000  1
  V  V2473  1  0.56250000  0.62500000  0.56250000  1
  V  V2474  1  0.56250000  0.62500000  0.62500000  1
  Cr  Cr2475  1  0.56250000  0.62500000  0.68750000  1
  V  V2476  1  0.56250000  0.62500000  0.75000000  1
  Cr  Cr2477  1  0.56250000  0.62500000  0.81250000  1
  Ti  Ti2478  1  0.56250000  0.62500000  0.87500000  1
  V  V2479  1  0.56250000  0.62500000  0.93750000  1
  Cr  Cr2480  1  0.56250000  0.68750000  0.00000000  1
  V  V2481  1  0.56250000  0.68750000  0.06250000  1
  Ti  Ti2482  1  0.56250000  0.68750000  0.12500000  1
  V  V2483  1  0.56250000  0.68750000  0.18750000  1
  V  V2484  1  0.56250000  0.68750000  0.25000000  1
  V  V2485  1  0.56250000  0.68750000  0.31250000  1
  V  V2486  1  0.56250000  0.68750000  0.37500000  1
  V  V2487  1  0.56250000  0.68750000  0.43750000  1
  V  V2488  1  0.56250000  0.68750000  0.50000000  1
  V  V2489  1  0.56250000  0.68750000  0.56250000  1
  V  V2490  1  0.56250000  0.68750000  0.62500000  1
  Ti  Ti2491  1  0.56250000  0.68750000  0.68750000  1
  Ti  Ti2492  1  0.56250000  0.68750000  0.75000000  1
  Ti  Ti2493  1  0.56250000  0.68750000  0.81250000  1
  V  V2494  1  0.56250000  0.68750000  0.87500000  1
  Ti  Ti2495  1  0.56250000  0.68750000  0.93750000  1
  V  V2496  1  0.56250000  0.75000000  0.00000000  1
  V  V2497  1  0.56250000  0.75000000  0.06250000  1
  V  V2498  1  0.56250000  0.75000000  0.12500000  1
  Ti  Ti2499  1  0.56250000  0.75000000  0.18750000  1
  V  V2500  1  0.56250000  0.75000000  0.25000000  1
  Ti  Ti2501  1  0.56250000  0.75000000  0.31250000  1
  V  V2502  1  0.56250000  0.75000000  0.37500000  1
  Cr  Cr2503  1  0.56250000  0.75000000  0.43750000  1
  Cr  Cr2504  1  0.56250000  0.75000000  0.50000000  1
  V  V2505  1  0.56250000  0.75000000  0.56250000  1
  V  V2506  1  0.56250000  0.75000000  0.62500000  1
  Ti  Ti2507  1  0.56250000  0.75000000  0.68750000  1
  V  V2508  1  0.56250000  0.75000000  0.75000000  1
  V  V2509  1  0.56250000  0.75000000  0.81250000  1
  V  V2510  1  0.56250000  0.75000000  0.87500000  1
  V  V2511  1  0.56250000  0.75000000  0.93750000  1
  V  V2512  1  0.56250000  0.81250000  0.00000000  1
  Ti  Ti2513  1  0.56250000  0.81250000  0.06250000  1
  Ti  Ti2514  1  0.56250000  0.81250000  0.12500000  1
  V  V2515  1  0.56250000  0.81250000  0.18750000  1
  V  V2516  1  0.56250000  0.81250000  0.25000000  1
  V  V2517  1  0.56250000  0.81250000  0.31250000  1
  Ti  Ti2518  1  0.56250000  0.81250000  0.37500000  1
  Ti  Ti2519  1  0.56250000  0.81250000  0.43750000  1
  Ti  Ti2520  1  0.56250000  0.81250000  0.50000000  1
  Ti  Ti2521  1  0.56250000  0.81250000  0.56250000  1
  Ti  Ti2522  1  0.56250000  0.81250000  0.62500000  1
  V  V2523  1  0.56250000  0.81250000  0.68750000  1
  V  V2524  1  0.56250000  0.81250000  0.75000000  1
  V  V2525  1  0.56250000  0.81250000  0.81250000  1
  V  V2526  1  0.56250000  0.81250000  0.87500000  1
  V  V2527  1  0.56250000  0.81250000  0.93750000  1
  V  V2528  1  0.56250000  0.87500000  0.00000000  1
  V  V2529  1  0.56250000  0.87500000  0.06250000  1
  Cr  Cr2530  1  0.56250000  0.87500000  0.12500000  1
  Ti  Ti2531  1  0.56250000  0.87500000  0.18750000  1
  V  V2532  1  0.56250000  0.87500000  0.25000000  1
  V  V2533  1  0.56250000  0.87500000  0.31250000  1
  V  V2534  1  0.56250000  0.87500000  0.37500000  1
  Ti  Ti2535  1  0.56250000  0.87500000  0.43750000  1
  V  V2536  1  0.56250000  0.87500000  0.50000000  1
  V  V2537  1  0.56250000  0.87500000  0.56250000  1
  V  V2538  1  0.56250000  0.87500000  0.62500000  1
  Ti  Ti2539  1  0.56250000  0.87500000  0.68750000  1
  V  V2540  1  0.56250000  0.87500000  0.75000000  1
  Ti  Ti2541  1  0.56250000  0.87500000  0.81250000  1
  Ti  Ti2542  1  0.56250000  0.87500000  0.87500000  1
  V  V2543  1  0.56250000  0.87500000  0.93750000  1
  V  V2544  1  0.56250000  0.93750000  0.00000000  1
  V  V2545  1  0.56250000  0.93750000  0.06250000  1
  V  V2546  1  0.56250000  0.93750000  0.12500000  1
  Ti  Ti2547  1  0.56250000  0.93750000  0.18750000  1
  V  V2548  1  0.56250000  0.93750000  0.25000000  1
  V  V2549  1  0.56250000  0.93750000  0.31250000  1
  Ti  Ti2550  1  0.56250000  0.93750000  0.37500000  1
  V  V2551  1  0.56250000  0.93750000  0.43750000  1
  V  V2552  1  0.56250000  0.93750000  0.50000000  1
  V  V2553  1  0.56250000  0.93750000  0.56250000  1
  V  V2554  1  0.56250000  0.93750000  0.62500000  1
  V  V2555  1  0.56250000  0.93750000  0.68750000  1
  V  V2556  1  0.56250000  0.93750000  0.75000000  1
  V  V2557  1  0.56250000  0.93750000  0.81250000  1
  Ti  Ti2558  1  0.56250000  0.93750000  0.87500000  1
  V  V2559  1  0.56250000  0.93750000  0.93750000  1
  V  V2560  1  0.62500000  0.00000000  0.00000000  1
  V  V2561  1  0.62500000  0.00000000  0.06250000  1
  Ti  Ti2562  1  0.62500000  0.00000000  0.12500000  1
  V  V2563  1  0.62500000  0.00000000  0.18750000  1
  Ti  Ti2564  1  0.62500000  0.00000000  0.25000000  1
  V  V2565  1  0.62500000  0.00000000  0.31250000  1
  Ti  Ti2566  1  0.62500000  0.00000000  0.37500000  1
  Ti  Ti2567  1  0.62500000  0.00000000  0.43750000  1
  V  V2568  1  0.62500000  0.00000000  0.50000000  1
  Cr  Cr2569  1  0.62500000  0.00000000  0.56250000  1
  V  V2570  1  0.62500000  0.00000000  0.62500000  1
  Ti  Ti2571  1  0.62500000  0.00000000  0.68750000  1
  Ti  Ti2572  1  0.62500000  0.00000000  0.75000000  1
  V  V2573  1  0.62500000  0.00000000  0.81250000  1
  V  V2574  1  0.62500000  0.00000000  0.87500000  1
  Ti  Ti2575  1  0.62500000  0.00000000  0.93750000  1
  Ti  Ti2576  1  0.62500000  0.06250000  0.00000000  1
  Ti  Ti2577  1  0.62500000  0.06250000  0.06250000  1
  Cr  Cr2578  1  0.62500000  0.06250000  0.12500000  1
  V  V2579  1  0.62500000  0.06250000  0.18750000  1
  Cr  Cr2580  1  0.62500000  0.06250000  0.25000000  1
  V  V2581  1  0.62500000  0.06250000  0.31250000  1
  Ti  Ti2582  1  0.62500000  0.06250000  0.37500000  1
  Cr  Cr2583  1  0.62500000  0.06250000  0.43750000  1
  V  V2584  1  0.62500000  0.06250000  0.50000000  1
  V  V2585  1  0.62500000  0.06250000  0.56250000  1
  V  V2586  1  0.62500000  0.06250000  0.62500000  1
  V  V2587  1  0.62500000  0.06250000  0.68750000  1
  Ti  Ti2588  1  0.62500000  0.06250000  0.75000000  1
  Cr  Cr2589  1  0.62500000  0.06250000  0.81250000  1
  V  V2590  1  0.62500000  0.06250000  0.87500000  1
  V  V2591  1  0.62500000  0.06250000  0.93750000  1
  Ti  Ti2592  1  0.62500000  0.12500000  0.00000000  1
  Ti  Ti2593  1  0.62500000  0.12500000  0.06250000  1
  Ti  Ti2594  1  0.62500000  0.12500000  0.12500000  1
  V  V2595  1  0.62500000  0.12500000  0.18750000  1
  V  V2596  1  0.62500000  0.12500000  0.25000000  1
  V  V2597  1  0.62500000  0.12500000  0.31250000  1
  V  V2598  1  0.62500000  0.12500000  0.37500000  1
  V  V2599  1  0.62500000  0.12500000  0.43750000  1
  V  V2600  1  0.62500000  0.12500000  0.50000000  1
  V  V2601  1  0.62500000  0.12500000  0.56250000  1
  V  V2602  1  0.62500000  0.12500000  0.62500000  1
  Cr  Cr2603  1  0.62500000  0.12500000  0.68750000  1
  Cr  Cr2604  1  0.62500000  0.12500000  0.75000000  1
  Ti  Ti2605  1  0.62500000  0.12500000  0.81250000  1
  Ti  Ti2606  1  0.62500000  0.12500000  0.87500000  1
  V  V2607  1  0.62500000  0.12500000  0.93750000  1
  V  V2608  1  0.62500000  0.18750000  0.00000000  1
  Ti  Ti2609  1  0.62500000  0.18750000  0.06250000  1
  V  V2610  1  0.62500000  0.18750000  0.12500000  1
  V  V2611  1  0.62500000  0.18750000  0.18750000  1
  V  V2612  1  0.62500000  0.18750000  0.25000000  1
  Ti  Ti2613  1  0.62500000  0.18750000  0.31250000  1
  V  V2614  1  0.62500000  0.18750000  0.37500000  1
  Cr  Cr2615  1  0.62500000  0.18750000  0.43750000  1
  V  V2616  1  0.62500000  0.18750000  0.50000000  1
  Ti  Ti2617  1  0.62500000  0.18750000  0.56250000  1
  Ti  Ti2618  1  0.62500000  0.18750000  0.62500000  1
  V  V2619  1  0.62500000  0.18750000  0.68750000  1
  V  V2620  1  0.62500000  0.18750000  0.75000000  1
  V  V2621  1  0.62500000  0.18750000  0.81250000  1
  Ti  Ti2622  1  0.62500000  0.18750000  0.87500000  1
  Ti  Ti2623  1  0.62500000  0.18750000  0.93750000  1
  V  V2624  1  0.62500000  0.25000000  0.00000000  1
  Cr  Cr2625  1  0.62500000  0.25000000  0.06250000  1
  V  V2626  1  0.62500000  0.25000000  0.12500000  1
  V  V2627  1  0.62500000  0.25000000  0.18750000  1
  V  V2628  1  0.62500000  0.25000000  0.25000000  1
  V  V2629  1  0.62500000  0.25000000  0.31250000  1
  Ti  Ti2630  1  0.62500000  0.25000000  0.37500000  1
  V  V2631  1  0.62500000  0.25000000  0.43750000  1
  Ti  Ti2632  1  0.62500000  0.25000000  0.50000000  1
  Cr  Cr2633  1  0.62500000  0.25000000  0.56250000  1
  V  V2634  1  0.62500000  0.25000000  0.62500000  1
  V  V2635  1  0.62500000  0.25000000  0.68750000  1
  Cr  Cr2636  1  0.62500000  0.25000000  0.75000000  1
  V  V2637  1  0.62500000  0.25000000  0.81250000  1
  Cr  Cr2638  1  0.62500000  0.25000000  0.87500000  1
  Cr  Cr2639  1  0.62500000  0.25000000  0.93750000  1
  V  V2640  1  0.62500000  0.31250000  0.00000000  1
  V  V2641  1  0.62500000  0.31250000  0.06250000  1
  V  V2642  1  0.62500000  0.31250000  0.12500000  1
  V  V2643  1  0.62500000  0.31250000  0.18750000  1
  Ti  Ti2644  1  0.62500000  0.31250000  0.25000000  1
  Cr  Cr2645  1  0.62500000  0.31250000  0.31250000  1
  Ti  Ti2646  1  0.62500000  0.31250000  0.37500000  1
  V  V2647  1  0.62500000  0.31250000  0.43750000  1
  V  V2648  1  0.62500000  0.31250000  0.50000000  1
  Ti  Ti2649  1  0.62500000  0.31250000  0.56250000  1
  Ti  Ti2650  1  0.62500000  0.31250000  0.62500000  1
  Cr  Cr2651  1  0.62500000  0.31250000  0.68750000  1
  V  V2652  1  0.62500000  0.31250000  0.75000000  1
  V  V2653  1  0.62500000  0.31250000  0.81250000  1
  Ti  Ti2654  1  0.62500000  0.31250000  0.87500000  1
  Ti  Ti2655  1  0.62500000  0.31250000  0.93750000  1
  Ti  Ti2656  1  0.62500000  0.37500000  0.00000000  1
  Ti  Ti2657  1  0.62500000  0.37500000  0.06250000  1
  Ti  Ti2658  1  0.62500000  0.37500000  0.12500000  1
  V  V2659  1  0.62500000  0.37500000  0.18750000  1
  Ti  Ti2660  1  0.62500000  0.37500000  0.25000000  1
  V  V2661  1  0.62500000  0.37500000  0.31250000  1
  Ti  Ti2662  1  0.62500000  0.37500000  0.37500000  1
  V  V2663  1  0.62500000  0.37500000  0.43750000  1
  V  V2664  1  0.62500000  0.37500000  0.50000000  1
  Cr  Cr2665  1  0.62500000  0.37500000  0.56250000  1
  V  V2666  1  0.62500000  0.37500000  0.62500000  1
  V  V2667  1  0.62500000  0.37500000  0.68750000  1
  Ti  Ti2668  1  0.62500000  0.37500000  0.75000000  1
  V  V2669  1  0.62500000  0.37500000  0.81250000  1
  Ti  Ti2670  1  0.62500000  0.37500000  0.87500000  1
  Cr  Cr2671  1  0.62500000  0.37500000  0.93750000  1
  Ti  Ti2672  1  0.62500000  0.43750000  0.00000000  1
  V  V2673  1  0.62500000  0.43750000  0.06250000  1
  V  V2674  1  0.62500000  0.43750000  0.12500000  1
  Ti  Ti2675  1  0.62500000  0.43750000  0.18750000  1
  V  V2676  1  0.62500000  0.43750000  0.25000000  1
  Ti  Ti2677  1  0.62500000  0.43750000  0.31250000  1
  Cr  Cr2678  1  0.62500000  0.43750000  0.37500000  1
  V  V2679  1  0.62500000  0.43750000  0.43750000  1
  Ti  Ti2680  1  0.62500000  0.43750000  0.50000000  1
  V  V2681  1  0.62500000  0.43750000  0.56250000  1
  V  V2682  1  0.62500000  0.43750000  0.62500000  1
  V  V2683  1  0.62500000  0.43750000  0.68750000  1
  V  V2684  1  0.62500000  0.43750000  0.75000000  1
  Ti  Ti2685  1  0.62500000  0.43750000  0.81250000  1
  V  V2686  1  0.62500000  0.43750000  0.87500000  1
  V  V2687  1  0.62500000  0.43750000  0.93750000  1
  Ti  Ti2688  1  0.62500000  0.50000000  0.00000000  1
  V  V2689  1  0.62500000  0.50000000  0.06250000  1
  V  V2690  1  0.62500000  0.50000000  0.12500000  1
  Ti  Ti2691  1  0.62500000  0.50000000  0.18750000  1
  V  V2692  1  0.62500000  0.50000000  0.25000000  1
  V  V2693  1  0.62500000  0.50000000  0.31250000  1
  V  V2694  1  0.62500000  0.50000000  0.37500000  1
  V  V2695  1  0.62500000  0.50000000  0.43750000  1
  V  V2696  1  0.62500000  0.50000000  0.50000000  1
  V  V2697  1  0.62500000  0.50000000  0.56250000  1
  V  V2698  1  0.62500000  0.50000000  0.62500000  1
  V  V2699  1  0.62500000  0.50000000  0.68750000  1
  Ti  Ti2700  1  0.62500000  0.50000000  0.75000000  1
  Ti  Ti2701  1  0.62500000  0.50000000  0.81250000  1
  Ti  Ti2702  1  0.62500000  0.50000000  0.87500000  1
  V  V2703  1  0.62500000  0.50000000  0.93750000  1
  V  V2704  1  0.62500000  0.56250000  0.00000000  1
  Ti  Ti2705  1  0.62500000  0.56250000  0.06250000  1
  V  V2706  1  0.62500000  0.56250000  0.12500000  1
  V  V2707  1  0.62500000  0.56250000  0.18750000  1
  Ti  Ti2708  1  0.62500000  0.56250000  0.25000000  1
  V  V2709  1  0.62500000  0.56250000  0.31250000  1
  Ti  Ti2710  1  0.62500000  0.56250000  0.37500000  1
  Cr  Cr2711  1  0.62500000  0.56250000  0.43750000  1
  Cr  Cr2712  1  0.62500000  0.56250000  0.50000000  1
  V  V2713  1  0.62500000  0.56250000  0.56250000  1
  V  V2714  1  0.62500000  0.56250000  0.62500000  1
  Ti  Ti2715  1  0.62500000  0.56250000  0.68750000  1
  V  V2716  1  0.62500000  0.56250000  0.75000000  1
  Cr  Cr2717  1  0.62500000  0.56250000  0.81250000  1
  V  V2718  1  0.62500000  0.56250000  0.87500000  1
  V  V2719  1  0.62500000  0.56250000  0.93750000  1
  V  V2720  1  0.62500000  0.62500000  0.00000000  1
  Cr  Cr2721  1  0.62500000  0.62500000  0.06250000  1
  V  V2722  1  0.62500000  0.62500000  0.12500000  1
  V  V2723  1  0.62500000  0.62500000  0.18750000  1
  V  V2724  1  0.62500000  0.62500000  0.25000000  1
  Ti  Ti2725  1  0.62500000  0.62500000  0.31250000  1
  V  V2726  1  0.62500000  0.62500000  0.37500000  1
  V  V2727  1  0.62500000  0.62500000  0.43750000  1
  Ti  Ti2728  1  0.62500000  0.62500000  0.50000000  1
  Ti  Ti2729  1  0.62500000  0.62500000  0.56250000  1
  V  V2730  1  0.62500000  0.62500000  0.62500000  1
  V  V2731  1  0.62500000  0.62500000  0.68750000  1
  V  V2732  1  0.62500000  0.62500000  0.75000000  1
  V  V2733  1  0.62500000  0.62500000  0.81250000  1
  Ti  Ti2734  1  0.62500000  0.62500000  0.87500000  1
  Ti  Ti2735  1  0.62500000  0.62500000  0.93750000  1
  V  V2736  1  0.62500000  0.68750000  0.00000000  1
  V  V2737  1  0.62500000  0.68750000  0.06250000  1
  V  V2738  1  0.62500000  0.68750000  0.12500000  1
  V  V2739  1  0.62500000  0.68750000  0.18750000  1
  Ti  Ti2740  1  0.62500000  0.68750000  0.25000000  1
  V  V2741  1  0.62500000  0.68750000  0.31250000  1
  V  V2742  1  0.62500000  0.68750000  0.37500000  1
  Ti  Ti2743  1  0.62500000  0.68750000  0.43750000  1
  V  V2744  1  0.62500000  0.68750000  0.50000000  1
  Ti  Ti2745  1  0.62500000  0.68750000  0.56250000  1
  V  V2746  1  0.62500000  0.68750000  0.62500000  1
  V  V2747  1  0.62500000  0.68750000  0.68750000  1
  V  V2748  1  0.62500000  0.68750000  0.75000000  1
  V  V2749  1  0.62500000  0.68750000  0.81250000  1
  Cr  Cr2750  1  0.62500000  0.68750000  0.87500000  1
  Ti  Ti2751  1  0.62500000  0.68750000  0.93750000  1
  Cr  Cr2752  1  0.62500000  0.75000000  0.00000000  1
  Cr  Cr2753  1  0.62500000  0.75000000  0.06250000  1
  V  V2754  1  0.62500000  0.75000000  0.12500000  1
  Cr  Cr2755  1  0.62500000  0.75000000  0.18750000  1
  V  V2756  1  0.62500000  0.75000000  0.25000000  1
  Ti  Ti2757  1  0.62500000  0.75000000  0.31250000  1
  V  V2758  1  0.62500000  0.75000000  0.37500000  1
  Ti  Ti2759  1  0.62500000  0.75000000  0.43750000  1
  Ti  Ti2760  1  0.62500000  0.75000000  0.50000000  1
  Cr  Cr2761  1  0.62500000  0.75000000  0.56250000  1
  V  V2762  1  0.62500000  0.75000000  0.62500000  1
  V  V2763  1  0.62500000  0.75000000  0.68750000  1
  V  V2764  1  0.62500000  0.75000000  0.75000000  1
  V  V2765  1  0.62500000  0.75000000  0.81250000  1
  Cr  Cr2766  1  0.62500000  0.75000000  0.87500000  1
  Ti  Ti2767  1  0.62500000  0.75000000  0.93750000  1
  Ti  Ti2768  1  0.62500000  0.81250000  0.00000000  1
  V  V2769  1  0.62500000  0.81250000  0.06250000  1
  V  V2770  1  0.62500000  0.81250000  0.12500000  1
  Ti  Ti2771  1  0.62500000  0.81250000  0.18750000  1
  Ti  Ti2772  1  0.62500000  0.81250000  0.25000000  1
  V  V2773  1  0.62500000  0.81250000  0.31250000  1
  Ti  Ti2774  1  0.62500000  0.81250000  0.37500000  1
  V  V2775  1  0.62500000  0.81250000  0.43750000  1
  V  V2776  1  0.62500000  0.81250000  0.50000000  1
  Ti  Ti2777  1  0.62500000  0.81250000  0.56250000  1
  V  V2778  1  0.62500000  0.81250000  0.62500000  1
  Ti  Ti2779  1  0.62500000  0.81250000  0.68750000  1
  V  V2780  1  0.62500000  0.81250000  0.75000000  1
  V  V2781  1  0.62500000  0.81250000  0.81250000  1
  V  V2782  1  0.62500000  0.81250000  0.87500000  1
  Ti  Ti2783  1  0.62500000  0.81250000  0.93750000  1
  Cr  Cr2784  1  0.62500000  0.87500000  0.00000000  1
  V  V2785  1  0.62500000  0.87500000  0.06250000  1
  Ti  Ti2786  1  0.62500000  0.87500000  0.12500000  1
  V  V2787  1  0.62500000  0.87500000  0.18750000  1
  Ti  Ti2788  1  0.62500000  0.87500000  0.25000000  1
  Cr  Cr2789  1  0.62500000  0.87500000  0.31250000  1
  Ti  Ti2790  1  0.62500000  0.87500000  0.37500000  1
  V  V2791  1  0.62500000  0.87500000  0.43750000  1
  V  V2792  1  0.62500000  0.87500000  0.50000000  1
  Cr  Cr2793  1  0.62500000  0.87500000  0.56250000  1
  V  V2794  1  0.62500000  0.87500000  0.62500000  1
  V  V2795  1  0.62500000  0.87500000  0.68750000  1
  Ti  Ti2796  1  0.62500000  0.87500000  0.75000000  1
  Ti  Ti2797  1  0.62500000  0.87500000  0.81250000  1
  V  V2798  1  0.62500000  0.87500000  0.87500000  1
  V  V2799  1  0.62500000  0.87500000  0.93750000  1
  V  V2800  1  0.62500000  0.93750000  0.00000000  1
  Cr  Cr2801  1  0.62500000  0.93750000  0.06250000  1
  V  V2802  1  0.62500000  0.93750000  0.12500000  1
  V  V2803  1  0.62500000  0.93750000  0.18750000  1
  V  V2804  1  0.62500000  0.93750000  0.25000000  1
  V  V2805  1  0.62500000  0.93750000  0.31250000  1
  Ti  Ti2806  1  0.62500000  0.93750000  0.37500000  1
  V  V2807  1  0.62500000  0.93750000  0.43750000  1
  Ti  Ti2808  1  0.62500000  0.93750000  0.50000000  1
  V  V2809  1  0.62500000  0.93750000  0.56250000  1
  V  V2810  1  0.62500000  0.93750000  0.62500000  1
  V  V2811  1  0.62500000  0.93750000  0.68750000  1
  V  V2812  1  0.62500000  0.93750000  0.75000000  1
  V  V2813  1  0.62500000  0.93750000  0.81250000  1
  V  V2814  1  0.62500000  0.93750000  0.87500000  1
  V  V2815  1  0.62500000  0.93750000  0.93750000  1
  V  V2816  1  0.68750000  0.00000000  0.00000000  1
  V  V2817  1  0.68750000  0.00000000  0.06250000  1
  V  V2818  1  0.68750000  0.00000000  0.12500000  1
  Ti  Ti2819  1  0.68750000  0.00000000  0.18750000  1
  V  V2820  1  0.68750000  0.00000000  0.25000000  1
  Cr  Cr2821  1  0.68750000  0.00000000  0.31250000  1
  V  V2822  1  0.68750000  0.00000000  0.37500000  1
  Ti  Ti2823  1  0.68750000  0.00000000  0.43750000  1
  V  V2824  1  0.68750000  0.00000000  0.50000000  1
  V  V2825  1  0.68750000  0.00000000  0.56250000  1
  Cr  Cr2826  1  0.68750000  0.00000000  0.62500000  1
  Ti  Ti2827  1  0.68750000  0.00000000  0.68750000  1
  V  V2828  1  0.68750000  0.00000000  0.75000000  1
  Ti  Ti2829  1  0.68750000  0.00000000  0.81250000  1
  V  V2830  1  0.68750000  0.00000000  0.87500000  1
  Cr  Cr2831  1  0.68750000  0.00000000  0.93750000  1
  Ti  Ti2832  1  0.68750000  0.06250000  0.00000000  1
  V  V2833  1  0.68750000  0.06250000  0.06250000  1
  Ti  Ti2834  1  0.68750000  0.06250000  0.12500000  1
  Ti  Ti2835  1  0.68750000  0.06250000  0.18750000  1
  V  V2836  1  0.68750000  0.06250000  0.25000000  1
  V  V2837  1  0.68750000  0.06250000  0.31250000  1
  V  V2838  1  0.68750000  0.06250000  0.37500000  1
  V  V2839  1  0.68750000  0.06250000  0.43750000  1
  V  V2840  1  0.68750000  0.06250000  0.50000000  1
  Cr  Cr2841  1  0.68750000  0.06250000  0.56250000  1
  Ti  Ti2842  1  0.68750000  0.06250000  0.62500000  1
  V  V2843  1  0.68750000  0.06250000  0.68750000  1
  V  V2844  1  0.68750000  0.06250000  0.75000000  1
  Ti  Ti2845  1  0.68750000  0.06250000  0.81250000  1
  Cr  Cr2846  1  0.68750000  0.06250000  0.87500000  1
  Ti  Ti2847  1  0.68750000  0.06250000  0.93750000  1
  V  V2848  1  0.68750000  0.12500000  0.00000000  1
  Cr  Cr2849  1  0.68750000  0.12500000  0.06250000  1
  Ti  Ti2850  1  0.68750000  0.12500000  0.12500000  1
  V  V2851  1  0.68750000  0.12500000  0.18750000  1
  V  V2852  1  0.68750000  0.12500000  0.25000000  1
  Ti  Ti2853  1  0.68750000  0.12500000  0.31250000  1
  V  V2854  1  0.68750000  0.12500000  0.37500000  1
  Ti  Ti2855  1  0.68750000  0.12500000  0.43750000  1
  V  V2856  1  0.68750000  0.12500000  0.50000000  1
  V  V2857  1  0.68750000  0.12500000  0.56250000  1
  V  V2858  1  0.68750000  0.12500000  0.62500000  1
  Ti  Ti2859  1  0.68750000  0.12500000  0.68750000  1
  V  V2860  1  0.68750000  0.12500000  0.75000000  1
  V  V2861  1  0.68750000  0.12500000  0.81250000  1
  V  V2862  1  0.68750000  0.12500000  0.87500000  1
  Ti  Ti2863  1  0.68750000  0.12500000  0.93750000  1
  Ti  Ti2864  1  0.68750000  0.18750000  0.00000000  1
  V  V2865  1  0.68750000  0.18750000  0.06250000  1
  Cr  Cr2866  1  0.68750000  0.18750000  0.12500000  1
  V  V2867  1  0.68750000  0.18750000  0.18750000  1
  Ti  Ti2868  1  0.68750000  0.18750000  0.25000000  1
  Ti  Ti2869  1  0.68750000  0.18750000  0.31250000  1
  V  V2870  1  0.68750000  0.18750000  0.37500000  1
  V  V2871  1  0.68750000  0.18750000  0.43750000  1
  Ti  Ti2872  1  0.68750000  0.18750000  0.50000000  1
  Ti  Ti2873  1  0.68750000  0.18750000  0.56250000  1
  Ti  Ti2874  1  0.68750000  0.18750000  0.62500000  1
  Ti  Ti2875  1  0.68750000  0.18750000  0.68750000  1
  Ti  Ti2876  1  0.68750000  0.18750000  0.75000000  1
  V  V2877  1  0.68750000  0.18750000  0.81250000  1
  V  V2878  1  0.68750000  0.18750000  0.87500000  1
  Cr  Cr2879  1  0.68750000  0.18750000  0.93750000  1
  Ti  Ti2880  1  0.68750000  0.25000000  0.00000000  1
  Cr  Cr2881  1  0.68750000  0.25000000  0.06250000  1
  Ti  Ti2882  1  0.68750000  0.25000000  0.12500000  1
  V  V2883  1  0.68750000  0.25000000  0.18750000  1
  V  V2884  1  0.68750000  0.25000000  0.25000000  1
  V  V2885  1  0.68750000  0.25000000  0.31250000  1
  Ti  Ti2886  1  0.68750000  0.25000000  0.37500000  1
  V  V2887  1  0.68750000  0.25000000  0.43750000  1
  V  V2888  1  0.68750000  0.25000000  0.50000000  1
  Cr  Cr2889  1  0.68750000  0.25000000  0.56250000  1
  V  V2890  1  0.68750000  0.25000000  0.62500000  1
  V  V2891  1  0.68750000  0.25000000  0.68750000  1
  V  V2892  1  0.68750000  0.25000000  0.75000000  1
  Ti  Ti2893  1  0.68750000  0.25000000  0.81250000  1
  V  V2894  1  0.68750000  0.25000000  0.87500000  1
  V  V2895  1  0.68750000  0.25000000  0.93750000  1
  Ti  Ti2896  1  0.68750000  0.31250000  0.00000000  1
  V  V2897  1  0.68750000  0.31250000  0.06250000  1
  Ti  Ti2898  1  0.68750000  0.31250000  0.12500000  1
  Ti  Ti2899  1  0.68750000  0.31250000  0.18750000  1
  V  V2900  1  0.68750000  0.31250000  0.25000000  1
  V  V2901  1  0.68750000  0.31250000  0.31250000  1
  Ti  Ti2902  1  0.68750000  0.31250000  0.37500000  1
  Cr  Cr2903  1  0.68750000  0.31250000  0.43750000  1
  Ti  Ti2904  1  0.68750000  0.31250000  0.50000000  1
  V  V2905  1  0.68750000  0.31250000  0.56250000  1
  V  V2906  1  0.68750000  0.31250000  0.62500000  1
  V  V2907  1  0.68750000  0.31250000  0.68750000  1
  Ti  Ti2908  1  0.68750000  0.31250000  0.75000000  1
  Cr  Cr2909  1  0.68750000  0.31250000  0.81250000  1
  Ti  Ti2910  1  0.68750000  0.31250000  0.87500000  1
  V  V2911  1  0.68750000  0.31250000  0.93750000  1
  V  V2912  1  0.68750000  0.37500000  0.00000000  1
  Ti  Ti2913  1  0.68750000  0.37500000  0.06250000  1
  Ti  Ti2914  1  0.68750000  0.37500000  0.12500000  1
  V  V2915  1  0.68750000  0.37500000  0.18750000  1
  Ti  Ti2916  1  0.68750000  0.37500000  0.25000000  1
  V  V2917  1  0.68750000  0.37500000  0.31250000  1
  V  V2918  1  0.68750000  0.37500000  0.37500000  1
  V  V2919  1  0.68750000  0.37500000  0.43750000  1
  V  V2920  1  0.68750000  0.37500000  0.50000000  1
  V  V2921  1  0.68750000  0.37500000  0.56250000  1
  Ti  Ti2922  1  0.68750000  0.37500000  0.62500000  1
  V  V2923  1  0.68750000  0.37500000  0.68750000  1
  Ti  Ti2924  1  0.68750000  0.37500000  0.75000000  1
  Ti  Ti2925  1  0.68750000  0.37500000  0.81250000  1
  V  V2926  1  0.68750000  0.37500000  0.87500000  1
  V  V2927  1  0.68750000  0.37500000  0.93750000  1
  V  V2928  1  0.68750000  0.43750000  0.00000000  1
  V  V2929  1  0.68750000  0.43750000  0.06250000  1
  V  V2930  1  0.68750000  0.43750000  0.12500000  1
  V  V2931  1  0.68750000  0.43750000  0.18750000  1
  V  V2932  1  0.68750000  0.43750000  0.25000000  1
  Cr  Cr2933  1  0.68750000  0.43750000  0.31250000  1
  Cr  Cr2934  1  0.68750000  0.43750000  0.37500000  1
  V  V2935  1  0.68750000  0.43750000  0.43750000  1
  Ti  Ti2936  1  0.68750000  0.43750000  0.50000000  1
  V  V2937  1  0.68750000  0.43750000  0.56250000  1
  Ti  Ti2938  1  0.68750000  0.43750000  0.62500000  1
  V  V2939  1  0.68750000  0.43750000  0.68750000  1
  V  V2940  1  0.68750000  0.43750000  0.75000000  1
  V  V2941  1  0.68750000  0.43750000  0.81250000  1
  V  V2942  1  0.68750000  0.43750000  0.87500000  1
  V  V2943  1  0.68750000  0.43750000  0.93750000  1
  V  V2944  1  0.68750000  0.50000000  0.00000000  1
  V  V2945  1  0.68750000  0.50000000  0.06250000  1
  V  V2946  1  0.68750000  0.50000000  0.12500000  1
  V  V2947  1  0.68750000  0.50000000  0.18750000  1
  Ti  Ti2948  1  0.68750000  0.50000000  0.25000000  1
  V  V2949  1  0.68750000  0.50000000  0.31250000  1
  Ti  Ti2950  1  0.68750000  0.50000000  0.37500000  1
  V  V2951  1  0.68750000  0.50000000  0.43750000  1
  Ti  Ti2952  1  0.68750000  0.50000000  0.50000000  1
  V  V2953  1  0.68750000  0.50000000  0.56250000  1
  V  V2954  1  0.68750000  0.50000000  0.62500000  1
  V  V2955  1  0.68750000  0.50000000  0.68750000  1
  Ti  Ti2956  1  0.68750000  0.50000000  0.75000000  1
  V  V2957  1  0.68750000  0.50000000  0.81250000  1
  Ti  Ti2958  1  0.68750000  0.50000000  0.87500000  1
  V  V2959  1  0.68750000  0.50000000  0.93750000  1
  Cr  Cr2960  1  0.68750000  0.56250000  0.00000000  1
  Ti  Ti2961  1  0.68750000  0.56250000  0.06250000  1
  Cr  Cr2962  1  0.68750000  0.56250000  0.12500000  1
  V  V2963  1  0.68750000  0.56250000  0.18750000  1
  V  V2964  1  0.68750000  0.56250000  0.25000000  1
  V  V2965  1  0.68750000  0.56250000  0.31250000  1
  V  V2966  1  0.68750000  0.56250000  0.37500000  1
  Ti  Ti2967  1  0.68750000  0.56250000  0.43750000  1
  V  V2968  1  0.68750000  0.56250000  0.50000000  1
  V  V2969  1  0.68750000  0.56250000  0.56250000  1
  Cr  Cr2970  1  0.68750000  0.56250000  0.62500000  1
  Cr  Cr2971  1  0.68750000  0.56250000  0.68750000  1
  V  V2972  1  0.68750000  0.56250000  0.75000000  1
  Cr  Cr2973  1  0.68750000  0.56250000  0.81250000  1
  V  V2974  1  0.68750000  0.56250000  0.87500000  1
  V  V2975  1  0.68750000  0.56250000  0.93750000  1
  V  V2976  1  0.68750000  0.62500000  0.00000000  1
  V  V2977  1  0.68750000  0.62500000  0.06250000  1
  V  V2978  1  0.68750000  0.62500000  0.12500000  1
  Ti  Ti2979  1  0.68750000  0.62500000  0.18750000  1
  Ti  Ti2980  1  0.68750000  0.62500000  0.25000000  1
  Ti  Ti2981  1  0.68750000  0.62500000  0.31250000  1
  Cr  Cr2982  1  0.68750000  0.62500000  0.37500000  1
  Ti  Ti2983  1  0.68750000  0.62500000  0.43750000  1
  Ti  Ti2984  1  0.68750000  0.62500000  0.50000000  1
  Ti  Ti2985  1  0.68750000  0.62500000  0.56250000  1
  Cr  Cr2986  1  0.68750000  0.62500000  0.62500000  1
  V  V2987  1  0.68750000  0.62500000  0.68750000  1
  V  V2988  1  0.68750000  0.62500000  0.75000000  1
  Ti  Ti2989  1  0.68750000  0.62500000  0.81250000  1
  Ti  Ti2990  1  0.68750000  0.62500000  0.87500000  1
  Ti  Ti2991  1  0.68750000  0.62500000  0.93750000  1
  V  V2992  1  0.68750000  0.68750000  0.00000000  1
  V  V2993  1  0.68750000  0.68750000  0.06250000  1
  Ti  Ti2994  1  0.68750000  0.68750000  0.12500000  1
  V  V2995  1  0.68750000  0.68750000  0.18750000  1
  Ti  Ti2996  1  0.68750000  0.68750000  0.25000000  1
  V  V2997  1  0.68750000  0.68750000  0.31250000  1
  Ti  Ti2998  1  0.68750000  0.68750000  0.37500000  1
  V  V2999  1  0.68750000  0.68750000  0.43750000  1
  V  V3000  1  0.68750000  0.68750000  0.50000000  1
  V  V3001  1  0.68750000  0.68750000  0.56250000  1
  Ti  Ti3002  1  0.68750000  0.68750000  0.62500000  1
  V  V3003  1  0.68750000  0.68750000  0.68750000  1
  V  V3004  1  0.68750000  0.68750000  0.75000000  1
  V  V3005  1  0.68750000  0.68750000  0.81250000  1
  Ti  Ti3006  1  0.68750000  0.68750000  0.87500000  1
  V  V3007  1  0.68750000  0.68750000  0.93750000  1
  V  V3008  1  0.68750000  0.75000000  0.00000000  1
  Ti  Ti3009  1  0.68750000  0.75000000  0.06250000  1
  Ti  Ti3010  1  0.68750000  0.75000000  0.12500000  1
  V  V3011  1  0.68750000  0.75000000  0.18750000  1
  V  V3012  1  0.68750000  0.75000000  0.25000000  1
  Ti  Ti3013  1  0.68750000  0.75000000  0.31250000  1
  V  V3014  1  0.68750000  0.75000000  0.37500000  1
  V  V3015  1  0.68750000  0.75000000  0.43750000  1
  Ti  Ti3016  1  0.68750000  0.75000000  0.50000000  1
  V  V3017  1  0.68750000  0.75000000  0.56250000  1
  V  V3018  1  0.68750000  0.75000000  0.62500000  1
  V  V3019  1  0.68750000  0.75000000  0.68750000  1
  V  V3020  1  0.68750000  0.75000000  0.75000000  1
  Ti  Ti3021  1  0.68750000  0.75000000  0.81250000  1
  V  V3022  1  0.68750000  0.75000000  0.87500000  1
  V  V3023  1  0.68750000  0.75000000  0.93750000  1
  V  V3024  1  0.68750000  0.81250000  0.00000000  1
  V  V3025  1  0.68750000  0.81250000  0.06250000  1
  Ti  Ti3026  1  0.68750000  0.81250000  0.12500000  1
  V  V3027  1  0.68750000  0.81250000  0.18750000  1
  V  V3028  1  0.68750000  0.81250000  0.25000000  1
  Cr  Cr3029  1  0.68750000  0.81250000  0.31250000  1
  Ti  Ti3030  1  0.68750000  0.81250000  0.37500000  1
  V  V3031  1  0.68750000  0.81250000  0.43750000  1
  V  V3032  1  0.68750000  0.81250000  0.50000000  1
  Ti  Ti3033  1  0.68750000  0.81250000  0.56250000  1
  V  V3034  1  0.68750000  0.81250000  0.62500000  1
  V  V3035  1  0.68750000  0.81250000  0.68750000  1
  Ti  Ti3036  1  0.68750000  0.81250000  0.75000000  1
  Ti  Ti3037  1  0.68750000  0.81250000  0.81250000  1
  V  V3038  1  0.68750000  0.81250000  0.87500000  1
  V  V3039  1  0.68750000  0.81250000  0.93750000  1
  V  V3040  1  0.68750000  0.87500000  0.00000000  1
  V  V3041  1  0.68750000  0.87500000  0.06250000  1
  Ti  Ti3042  1  0.68750000  0.87500000  0.12500000  1
  Ti  Ti3043  1  0.68750000  0.87500000  0.18750000  1
  V  V3044  1  0.68750000  0.87500000  0.25000000  1
  V  V3045  1  0.68750000  0.87500000  0.31250000  1
  V  V3046  1  0.68750000  0.87500000  0.37500000  1
  Ti  Ti3047  1  0.68750000  0.87500000  0.43750000  1
  V  V3048  1  0.68750000  0.87500000  0.50000000  1
  Ti  Ti3049  1  0.68750000  0.87500000  0.56250000  1
  Cr  Cr3050  1  0.68750000  0.87500000  0.62500000  1
  Ti  Ti3051  1  0.68750000  0.87500000  0.68750000  1
  Ti  Ti3052  1  0.68750000  0.87500000  0.75000000  1
  Cr  Cr3053  1  0.68750000  0.87500000  0.81250000  1
  Ti  Ti3054  1  0.68750000  0.87500000  0.87500000  1
  Ti  Ti3055  1  0.68750000  0.87500000  0.93750000  1
  V  V3056  1  0.68750000  0.93750000  0.00000000  1
  V  V3057  1  0.68750000  0.93750000  0.06250000  1
  Cr  Cr3058  1  0.68750000  0.93750000  0.12500000  1
  V  V3059  1  0.68750000  0.93750000  0.18750000  1
  V  V3060  1  0.68750000  0.93750000  0.25000000  1
  Ti  Ti3061  1  0.68750000  0.93750000  0.31250000  1
  V  V3062  1  0.68750000  0.93750000  0.37500000  1
  V  V3063  1  0.68750000  0.93750000  0.43750000  1
  Cr  Cr3064  1  0.68750000  0.93750000  0.50000000  1
  Ti  Ti3065  1  0.68750000  0.93750000  0.56250000  1
  V  V3066  1  0.68750000  0.93750000  0.62500000  1
  V  V3067  1  0.68750000  0.93750000  0.68750000  1
  V  V3068  1  0.68750000  0.93750000  0.75000000  1
  Ti  Ti3069  1  0.68750000  0.93750000  0.81250000  1
  V  V3070  1  0.68750000  0.93750000  0.87500000  1
  Ti  Ti3071  1  0.68750000  0.93750000  0.93750000  1
  V  V3072  1  0.75000000  0.00000000  0.00000000  1
  Cr  Cr3073  1  0.75000000  0.00000000  0.06250000  1
  V  V3074  1  0.75000000  0.00000000  0.12500000  1
  Cr  Cr3075  1  0.75000000  0.00000000  0.18750000  1
  V  V3076  1  0.75000000  0.00000000  0.25000000  1
  Cr  Cr3077  1  0.75000000  0.00000000  0.31250000  1
  V  V3078  1  0.75000000  0.00000000  0.37500000  1
  Ti  Ti3079  1  0.75000000  0.00000000  0.43750000  1
  Ti  Ti3080  1  0.75000000  0.00000000  0.50000000  1
  V  V3081  1  0.75000000  0.00000000  0.56250000  1
  Ti  Ti3082  1  0.75000000  0.00000000  0.62500000  1
  V  V3083  1  0.75000000  0.00000000  0.68750000  1
  V  V3084  1  0.75000000  0.00000000  0.75000000  1
  Ti  Ti3085  1  0.75000000  0.00000000  0.81250000  1
  Ti  Ti3086  1  0.75000000  0.00000000  0.87500000  1
  V  V3087  1  0.75000000  0.00000000  0.93750000  1
  Cr  Cr3088  1  0.75000000  0.06250000  0.00000000  1
  Ti  Ti3089  1  0.75000000  0.06250000  0.06250000  1
  V  V3090  1  0.75000000  0.06250000  0.12500000  1
  V  V3091  1  0.75000000  0.06250000  0.18750000  1
  V  V3092  1  0.75000000  0.06250000  0.25000000  1
  V  V3093  1  0.75000000  0.06250000  0.31250000  1
  V  V3094  1  0.75000000  0.06250000  0.37500000  1
  V  V3095  1  0.75000000  0.06250000  0.43750000  1
  V  V3096  1  0.75000000  0.06250000  0.50000000  1
  V  V3097  1  0.75000000  0.06250000  0.56250000  1
  V  V3098  1  0.75000000  0.06250000  0.62500000  1
  Ti  Ti3099  1  0.75000000  0.06250000  0.68750000  1
  V  V3100  1  0.75000000  0.06250000  0.75000000  1
  Ti  Ti3101  1  0.75000000  0.06250000  0.81250000  1
  Ti  Ti3102  1  0.75000000  0.06250000  0.87500000  1
  Cr  Cr3103  1  0.75000000  0.06250000  0.93750000  1
  V  V3104  1  0.75000000  0.12500000  0.00000000  1
  V  V3105  1  0.75000000  0.12500000  0.06250000  1
  V  V3106  1  0.75000000  0.12500000  0.12500000  1
  V  V3107  1  0.75000000  0.12500000  0.18750000  1
  V  V3108  1  0.75000000  0.12500000  0.25000000  1
  V  V3109  1  0.75000000  0.12500000  0.31250000  1
  V  V3110  1  0.75000000  0.12500000  0.37500000  1
  Ti  Ti3111  1  0.75000000  0.12500000  0.43750000  1
  Ti  Ti3112  1  0.75000000  0.12500000  0.50000000  1
  Ti  Ti3113  1  0.75000000  0.12500000  0.56250000  1
  V  V3114  1  0.75000000  0.12500000  0.62500000  1
  V  V3115  1  0.75000000  0.12500000  0.68750000  1
  V  V3116  1  0.75000000  0.12500000  0.75000000  1
  V  V3117  1  0.75000000  0.12500000  0.81250000  1
  Ti  Ti3118  1  0.75000000  0.12500000  0.87500000  1
  Cr  Cr3119  1  0.75000000  0.12500000  0.93750000  1
  V  V3120  1  0.75000000  0.18750000  0.00000000  1
  V  V3121  1  0.75000000  0.18750000  0.06250000  1
  Ti  Ti3122  1  0.75000000  0.18750000  0.12500000  1
  Ti  Ti3123  1  0.75000000  0.18750000  0.18750000  1
  Cr  Cr3124  1  0.75000000  0.18750000  0.25000000  1
  Ti  Ti3125  1  0.75000000  0.18750000  0.31250000  1
  Ti  Ti3126  1  0.75000000  0.18750000  0.37500000  1
  V  V3127  1  0.75000000  0.18750000  0.43750000  1
  Ti  Ti3128  1  0.75000000  0.18750000  0.50000000  1
  Ti  Ti3129  1  0.75000000  0.18750000  0.56250000  1
  V  V3130  1  0.75000000  0.18750000  0.62500000  1
  V  V3131  1  0.75000000  0.18750000  0.68750000  1
  V  V3132  1  0.75000000  0.18750000  0.75000000  1
  Ti  Ti3133  1  0.75000000  0.18750000  0.81250000  1
  Ti  Ti3134  1  0.75000000  0.18750000  0.87500000  1
  V  V3135  1  0.75000000  0.18750000  0.93750000  1
  V  V3136  1  0.75000000  0.25000000  0.00000000  1
  Ti  Ti3137  1  0.75000000  0.25000000  0.06250000  1
  Cr  Cr3138  1  0.75000000  0.25000000  0.12500000  1
  V  V3139  1  0.75000000  0.25000000  0.18750000  1
  V  V3140  1  0.75000000  0.25000000  0.25000000  1
  Ti  Ti3141  1  0.75000000  0.25000000  0.31250000  1
  Ti  Ti3142  1  0.75000000  0.25000000  0.37500000  1
  V  V3143  1  0.75000000  0.25000000  0.43750000  1
  V  V3144  1  0.75000000  0.25000000  0.50000000  1
  V  V3145  1  0.75000000  0.25000000  0.56250000  1
  V  V3146  1  0.75000000  0.25000000  0.62500000  1
  V  V3147  1  0.75000000  0.25000000  0.68750000  1
  Cr  Cr3148  1  0.75000000  0.25000000  0.75000000  1
  V  V3149  1  0.75000000  0.25000000  0.81250000  1
  V  V3150  1  0.75000000  0.25000000  0.87500000  1
  V  V3151  1  0.75000000  0.25000000  0.93750000  1
  Ti  Ti3152  1  0.75000000  0.31250000  0.00000000  1
  Ti  Ti3153  1  0.75000000  0.31250000  0.06250000  1
  V  V3154  1  0.75000000  0.31250000  0.12500000  1
  V  V3155  1  0.75000000  0.31250000  0.18750000  1
  V  V3156  1  0.75000000  0.31250000  0.25000000  1
  Ti  Ti3157  1  0.75000000  0.31250000  0.31250000  1
  V  V3158  1  0.75000000  0.31250000  0.37500000  1
  V  V3159  1  0.75000000  0.31250000  0.43750000  1
  Cr  Cr3160  1  0.75000000  0.31250000  0.50000000  1
  V  V3161  1  0.75000000  0.31250000  0.56250000  1
  Ti  Ti3162  1  0.75000000  0.31250000  0.62500000  1
  V  V3163  1  0.75000000  0.31250000  0.68750000  1
  V  V3164  1  0.75000000  0.31250000  0.75000000  1
  V  V3165  1  0.75000000  0.31250000  0.81250000  1
  Ti  Ti3166  1  0.75000000  0.31250000  0.87500000  1
  Ti  Ti3167  1  0.75000000  0.31250000  0.93750000  1
  V  V3168  1  0.75000000  0.37500000  0.00000000  1
  Ti  Ti3169  1  0.75000000  0.37500000  0.06250000  1
  V  V3170  1  0.75000000  0.37500000  0.12500000  1
  Ti  Ti3171  1  0.75000000  0.37500000  0.18750000  1
  V  V3172  1  0.75000000  0.37500000  0.25000000  1
  V  V3173  1  0.75000000  0.37500000  0.31250000  1
  V  V3174  1  0.75000000  0.37500000  0.37500000  1
  V  V3175  1  0.75000000  0.37500000  0.43750000  1
  V  V3176  1  0.75000000  0.37500000  0.50000000  1
  Ti  Ti3177  1  0.75000000  0.37500000  0.56250000  1
  Ti  Ti3178  1  0.75000000  0.37500000  0.62500000  1
  V  V3179  1  0.75000000  0.37500000  0.68750000  1
  V  V3180  1  0.75000000  0.37500000  0.75000000  1
  V  V3181  1  0.75000000  0.37500000  0.81250000  1
  Cr  Cr3182  1  0.75000000  0.37500000  0.87500000  1
  Ti  Ti3183  1  0.75000000  0.37500000  0.93750000  1
  V  V3184  1  0.75000000  0.43750000  0.00000000  1
  Ti  Ti3185  1  0.75000000  0.43750000  0.06250000  1
  Ti  Ti3186  1  0.75000000  0.43750000  0.12500000  1
  V  V3187  1  0.75000000  0.43750000  0.18750000  1
  Ti  Ti3188  1  0.75000000  0.43750000  0.25000000  1
  Ti  Ti3189  1  0.75000000  0.43750000  0.31250000  1
  Ti  Ti3190  1  0.75000000  0.43750000  0.37500000  1
  Ti  Ti3191  1  0.75000000  0.43750000  0.43750000  1
  V  V3192  1  0.75000000  0.43750000  0.50000000  1
  Ti  Ti3193  1  0.75000000  0.43750000  0.56250000  1
  V  V3194  1  0.75000000  0.43750000  0.62500000  1
  Ti  Ti3195  1  0.75000000  0.43750000  0.68750000  1
  V  V3196  1  0.75000000  0.43750000  0.75000000  1
  V  V3197  1  0.75000000  0.43750000  0.81250000  1
  Ti  Ti3198  1  0.75000000  0.43750000  0.87500000  1
  V  V3199  1  0.75000000  0.43750000  0.93750000  1
  Ti  Ti3200  1  0.75000000  0.50000000  0.00000000  1
  V  V3201  1  0.75000000  0.50000000  0.06250000  1
  Ti  Ti3202  1  0.75000000  0.50000000  0.12500000  1
  V  V3203  1  0.75000000  0.50000000  0.18750000  1
  V  V3204  1  0.75000000  0.50000000  0.25000000  1
  V  V3205  1  0.75000000  0.50000000  0.31250000  1
  V  V3206  1  0.75000000  0.50000000  0.37500000  1
  V  V3207  1  0.75000000  0.50000000  0.43750000  1
  Cr  Cr3208  1  0.75000000  0.50000000  0.50000000  1
  V  V3209  1  0.75000000  0.50000000  0.56250000  1
  V  V3210  1  0.75000000  0.50000000  0.62500000  1
  V  V3211  1  0.75000000  0.50000000  0.68750000  1
  V  V3212  1  0.75000000  0.50000000  0.75000000  1
  V  V3213  1  0.75000000  0.50000000  0.81250000  1
  V  V3214  1  0.75000000  0.50000000  0.87500000  1
  Ti  Ti3215  1  0.75000000  0.50000000  0.93750000  1
  V  V3216  1  0.75000000  0.56250000  0.00000000  1
  Ti  Ti3217  1  0.75000000  0.56250000  0.06250000  1
  Cr  Cr3218  1  0.75000000  0.56250000  0.12500000  1
  Ti  Ti3219  1  0.75000000  0.56250000  0.18750000  1
  Ti  Ti3220  1  0.75000000  0.56250000  0.25000000  1
  V  V3221  1  0.75000000  0.56250000  0.31250000  1
  V  V3222  1  0.75000000  0.56250000  0.37500000  1
  Cr  Cr3223  1  0.75000000  0.56250000  0.43750000  1
  Cr  Cr3224  1  0.75000000  0.56250000  0.50000000  1
  V  V3225  1  0.75000000  0.56250000  0.56250000  1
  V  V3226  1  0.75000000  0.56250000  0.62500000  1
  V  V3227  1  0.75000000  0.56250000  0.68750000  1
  Cr  Cr3228  1  0.75000000  0.56250000  0.75000000  1
  V  V3229  1  0.75000000  0.56250000  0.81250000  1
  V  V3230  1  0.75000000  0.56250000  0.87500000  1
  Ti  Ti3231  1  0.75000000  0.56250000  0.93750000  1
  V  V3232  1  0.75000000  0.62500000  0.00000000  1
  V  V3233  1  0.75000000  0.62500000  0.06250000  1
  Ti  Ti3234  1  0.75000000  0.62500000  0.12500000  1
  Ti  Ti3235  1  0.75000000  0.62500000  0.18750000  1
  V  V3236  1  0.75000000  0.62500000  0.25000000  1
  Cr  Cr3237  1  0.75000000  0.62500000  0.31250000  1
  Cr  Cr3238  1  0.75000000  0.62500000  0.37500000  1
  V  V3239  1  0.75000000  0.62500000  0.43750000  1
  Ti  Ti3240  1  0.75000000  0.62500000  0.50000000  1
  Cr  Cr3241  1  0.75000000  0.62500000  0.56250000  1
  V  V3242  1  0.75000000  0.62500000  0.62500000  1
  Ti  Ti3243  1  0.75000000  0.62500000  0.68750000  1
  Ti  Ti3244  1  0.75000000  0.62500000  0.75000000  1
  V  V3245  1  0.75000000  0.62500000  0.81250000  1
  Cr  Cr3246  1  0.75000000  0.62500000  0.87500000  1
  V  V3247  1  0.75000000  0.62500000  0.93750000  1
  V  V3248  1  0.75000000  0.68750000  0.00000000  1
  Ti  Ti3249  1  0.75000000  0.68750000  0.06250000  1
  V  V3250  1  0.75000000  0.68750000  0.12500000  1
  Ti  Ti3251  1  0.75000000  0.68750000  0.18750000  1
  V  V3252  1  0.75000000  0.68750000  0.25000000  1
  V  V3253  1  0.75000000  0.68750000  0.31250000  1
  V  V3254  1  0.75000000  0.68750000  0.37500000  1
  Cr  Cr3255  1  0.75000000  0.68750000  0.43750000  1
  V  V3256  1  0.75000000  0.68750000  0.50000000  1
  V  V3257  1  0.75000000  0.68750000  0.56250000  1
  V  V3258  1  0.75000000  0.68750000  0.62500000  1
  V  V3259  1  0.75000000  0.68750000  0.68750000  1
  V  V3260  1  0.75000000  0.68750000  0.75000000  1
  Ti  Ti3261  1  0.75000000  0.68750000  0.81250000  1
  Ti  Ti3262  1  0.75000000  0.68750000  0.87500000  1
  V  V3263  1  0.75000000  0.68750000  0.93750000  1
  Ti  Ti3264  1  0.75000000  0.75000000  0.00000000  1
  Ti  Ti3265  1  0.75000000  0.75000000  0.06250000  1
  Cr  Cr3266  1  0.75000000  0.75000000  0.12500000  1
  V  V3267  1  0.75000000  0.75000000  0.18750000  1
  V  V3268  1  0.75000000  0.75000000  0.25000000  1
  V  V3269  1  0.75000000  0.75000000  0.31250000  1
  V  V3270  1  0.75000000  0.75000000  0.37500000  1
  Cr  Cr3271  1  0.75000000  0.75000000  0.43750000  1
  V  V3272  1  0.75000000  0.75000000  0.50000000  1
  V  V3273  1  0.75000000  0.75000000  0.56250000  1
  V  V3274  1  0.75000000  0.75000000  0.62500000  1
  V  V3275  1  0.75000000  0.75000000  0.68750000  1
  V  V3276  1  0.75000000  0.75000000  0.75000000  1
  V  V3277  1  0.75000000  0.75000000  0.81250000  1
  V  V3278  1  0.75000000  0.75000000  0.87500000  1
  Ti  Ti3279  1  0.75000000  0.75000000  0.93750000  1
  V  V3280  1  0.75000000  0.81250000  0.00000000  1
  Cr  Cr3281  1  0.75000000  0.81250000  0.06250000  1
  V  V3282  1  0.75000000  0.81250000  0.12500000  1
  Ti  Ti3283  1  0.75000000  0.81250000  0.18750000  1
  V  V3284  1  0.75000000  0.81250000  0.25000000  1
  Ti  Ti3285  1  0.75000000  0.81250000  0.31250000  1
  V  V3286  1  0.75000000  0.81250000  0.37500000  1
  V  V3287  1  0.75000000  0.81250000  0.43750000  1
  V  V3288  1  0.75000000  0.81250000  0.50000000  1
  V  V3289  1  0.75000000  0.81250000  0.56250000  1
  Cr  Cr3290  1  0.75000000  0.81250000  0.62500000  1
  V  V3291  1  0.75000000  0.81250000  0.68750000  1
  Cr  Cr3292  1  0.75000000  0.81250000  0.75000000  1
  Ti  Ti3293  1  0.75000000  0.81250000  0.81250000  1
  Cr  Cr3294  1  0.75000000  0.81250000  0.87500000  1
  Ti  Ti3295  1  0.75000000  0.81250000  0.93750000  1
  Ti  Ti3296  1  0.75000000  0.87500000  0.00000000  1
  Cr  Cr3297  1  0.75000000  0.87500000  0.06250000  1
  V  V3298  1  0.75000000  0.87500000  0.12500000  1
  V  V3299  1  0.75000000  0.87500000  0.18750000  1
  Ti  Ti3300  1  0.75000000  0.87500000  0.25000000  1
  V  V3301  1  0.75000000  0.87500000  0.31250000  1
  V  V3302  1  0.75000000  0.87500000  0.37500000  1
  V  V3303  1  0.75000000  0.87500000  0.43750000  1
  V  V3304  1  0.75000000  0.87500000  0.50000000  1
  Ti  Ti3305  1  0.75000000  0.87500000  0.56250000  1
  Ti  Ti3306  1  0.75000000  0.87500000  0.62500000  1
  V  V3307  1  0.75000000  0.87500000  0.68750000  1
  V  V3308  1  0.75000000  0.87500000  0.75000000  1
  V  V3309  1  0.75000000  0.87500000  0.81250000  1
  V  V3310  1  0.75000000  0.87500000  0.87500000  1
  Ti  Ti3311  1  0.75000000  0.87500000  0.93750000  1
  Ti  Ti3312  1  0.75000000  0.93750000  0.00000000  1
  Ti  Ti3313  1  0.75000000  0.93750000  0.06250000  1
  V  V3314  1  0.75000000  0.93750000  0.12500000  1
  Ti  Ti3315  1  0.75000000  0.93750000  0.18750000  1
  Ti  Ti3316  1  0.75000000  0.93750000  0.25000000  1
  Ti  Ti3317  1  0.75000000  0.93750000  0.31250000  1
  V  V3318  1  0.75000000  0.93750000  0.37500000  1
  Ti  Ti3319  1  0.75000000  0.93750000  0.43750000  1
  Ti  Ti3320  1  0.75000000  0.93750000  0.50000000  1
  V  V3321  1  0.75000000  0.93750000  0.56250000  1
  V  V3322  1  0.75000000  0.93750000  0.62500000  1
  V  V3323  1  0.75000000  0.93750000  0.68750000  1
  V  V3324  1  0.75000000  0.93750000  0.75000000  1
  V  V3325  1  0.75000000  0.93750000  0.81250000  1
  Cr  Cr3326  1  0.75000000  0.93750000  0.87500000  1
  Ti  Ti3327  1  0.75000000  0.93750000  0.93750000  1
  V  V3328  1  0.81250000  0.00000000  0.00000000  1
  V  V3329  1  0.81250000  0.00000000  0.06250000  1
  V  V3330  1  0.81250000  0.00000000  0.12500000  1
  Ti  Ti3331  1  0.81250000  0.00000000  0.18750000  1
  Ti  Ti3332  1  0.81250000  0.00000000  0.25000000  1
  V  V3333  1  0.81250000  0.00000000  0.31250000  1
  Ti  Ti3334  1  0.81250000  0.00000000  0.37500000  1
  Cr  Cr3335  1  0.81250000  0.00000000  0.43750000  1
  V  V3336  1  0.81250000  0.00000000  0.50000000  1
  V  V3337  1  0.81250000  0.00000000  0.56250000  1
  Ti  Ti3338  1  0.81250000  0.00000000  0.62500000  1
  V  V3339  1  0.81250000  0.00000000  0.68750000  1
  Cr  Cr3340  1  0.81250000  0.00000000  0.75000000  1
  Ti  Ti3341  1  0.81250000  0.00000000  0.81250000  1
  Ti  Ti3342  1  0.81250000  0.00000000  0.87500000  1
  V  V3343  1  0.81250000  0.00000000  0.93750000  1
  V  V3344  1  0.81250000  0.06250000  0.00000000  1
  Ti  Ti3345  1  0.81250000  0.06250000  0.06250000  1
  V  V3346  1  0.81250000  0.06250000  0.12500000  1
  V  V3347  1  0.81250000  0.06250000  0.18750000  1
  Ti  Ti3348  1  0.81250000  0.06250000  0.25000000  1
  Ti  Ti3349  1  0.81250000  0.06250000  0.31250000  1
  V  V3350  1  0.81250000  0.06250000  0.37500000  1
  V  V3351  1  0.81250000  0.06250000  0.43750000  1
  Cr  Cr3352  1  0.81250000  0.06250000  0.50000000  1
  V  V3353  1  0.81250000  0.06250000  0.56250000  1
  V  V3354  1  0.81250000  0.06250000  0.62500000  1
  Ti  Ti3355  1  0.81250000  0.06250000  0.68750000  1
  V  V3356  1  0.81250000  0.06250000  0.75000000  1
  V  V3357  1  0.81250000  0.06250000  0.81250000  1
  V  V3358  1  0.81250000  0.06250000  0.87500000  1
  Ti  Ti3359  1  0.81250000  0.06250000  0.93750000  1
  V  V3360  1  0.81250000  0.12500000  0.00000000  1
  Ti  Ti3361  1  0.81250000  0.12500000  0.06250000  1
  V  V3362  1  0.81250000  0.12500000  0.12500000  1
  Ti  Ti3363  1  0.81250000  0.12500000  0.18750000  1
  V  V3364  1  0.81250000  0.12500000  0.25000000  1
  V  V3365  1  0.81250000  0.12500000  0.31250000  1
  V  V3366  1  0.81250000  0.12500000  0.37500000  1
  V  V3367  1  0.81250000  0.12500000  0.43750000  1
  Ti  Ti3368  1  0.81250000  0.12500000  0.50000000  1
  Ti  Ti3369  1  0.81250000  0.12500000  0.56250000  1
  V  V3370  1  0.81250000  0.12500000  0.62500000  1
  Ti  Ti3371  1  0.81250000  0.12500000  0.68750000  1
  V  V3372  1  0.81250000  0.12500000  0.75000000  1
  V  V3373  1  0.81250000  0.12500000  0.81250000  1
  Ti  Ti3374  1  0.81250000  0.12500000  0.87500000  1
  Ti  Ti3375  1  0.81250000  0.12500000  0.93750000  1
  V  V3376  1  0.81250000  0.18750000  0.00000000  1
  Ti  Ti3377  1  0.81250000  0.18750000  0.06250000  1
  Ti  Ti3378  1  0.81250000  0.18750000  0.12500000  1
  V  V3379  1  0.81250000  0.18750000  0.18750000  1
  V  V3380  1  0.81250000  0.18750000  0.25000000  1
  V  V3381  1  0.81250000  0.18750000  0.31250000  1
  V  V3382  1  0.81250000  0.18750000  0.37500000  1
  Cr  Cr3383  1  0.81250000  0.18750000  0.43750000  1
  V  V3384  1  0.81250000  0.18750000  0.50000000  1
  V  V3385  1  0.81250000  0.18750000  0.56250000  1
  V  V3386  1  0.81250000  0.18750000  0.62500000  1
  Ti  Ti3387  1  0.81250000  0.18750000  0.68750000  1
  V  V3388  1  0.81250000  0.18750000  0.75000000  1
  Ti  Ti3389  1  0.81250000  0.18750000  0.81250000  1
  Ti  Ti3390  1  0.81250000  0.18750000  0.87500000  1
  V  V3391  1  0.81250000  0.18750000  0.93750000  1
  V  V3392  1  0.81250000  0.25000000  0.00000000  1
  Ti  Ti3393  1  0.81250000  0.25000000  0.06250000  1
  Ti  Ti3394  1  0.81250000  0.25000000  0.12500000  1
  V  V3395  1  0.81250000  0.25000000  0.18750000  1
  Cr  Cr3396  1  0.81250000  0.25000000  0.25000000  1
  V  V3397  1  0.81250000  0.25000000  0.31250000  1
  V  V3398  1  0.81250000  0.25000000  0.37500000  1
  Ti  Ti3399  1  0.81250000  0.25000000  0.43750000  1
  V  V3400  1  0.81250000  0.25000000  0.50000000  1
  V  V3401  1  0.81250000  0.25000000  0.56250000  1
  V  V3402  1  0.81250000  0.25000000  0.62500000  1
  V  V3403  1  0.81250000  0.25000000  0.68750000  1
  Ti  Ti3404  1  0.81250000  0.25000000  0.75000000  1
  V  V3405  1  0.81250000  0.25000000  0.81250000  1
  V  V3406  1  0.81250000  0.25000000  0.87500000  1
  Ti  Ti3407  1  0.81250000  0.25000000  0.93750000  1
  V  V3408  1  0.81250000  0.31250000  0.00000000  1
  Cr  Cr3409  1  0.81250000  0.31250000  0.06250000  1
  Cr  Cr3410  1  0.81250000  0.31250000  0.12500000  1
  Ti  Ti3411  1  0.81250000  0.31250000  0.18750000  1
  V  V3412  1  0.81250000  0.31250000  0.25000000  1
  V  V3413  1  0.81250000  0.31250000  0.31250000  1
  V  V3414  1  0.81250000  0.31250000  0.37500000  1
  V  V3415  1  0.81250000  0.31250000  0.43750000  1
  V  V3416  1  0.81250000  0.31250000  0.50000000  1
  Ti  Ti3417  1  0.81250000  0.31250000  0.56250000  1
  V  V3418  1  0.81250000  0.31250000  0.62500000  1
  Ti  Ti3419  1  0.81250000  0.31250000  0.68750000  1
  Ti  Ti3420  1  0.81250000  0.31250000  0.75000000  1
  Ti  Ti3421  1  0.81250000  0.31250000  0.81250000  1
  Ti  Ti3422  1  0.81250000  0.31250000  0.87500000  1
  V  V3423  1  0.81250000  0.31250000  0.93750000  1
  V  V3424  1  0.81250000  0.37500000  0.00000000  1
  V  V3425  1  0.81250000  0.37500000  0.06250000  1
  V  V3426  1  0.81250000  0.37500000  0.12500000  1
  Cr  Cr3427  1  0.81250000  0.37500000  0.18750000  1
  Ti  Ti3428  1  0.81250000  0.37500000  0.25000000  1
  Ti  Ti3429  1  0.81250000  0.37500000  0.31250000  1
  Ti  Ti3430  1  0.81250000  0.37500000  0.37500000  1
  Ti  Ti3431  1  0.81250000  0.37500000  0.43750000  1
  V  V3432  1  0.81250000  0.37500000  0.50000000  1
  Ti  Ti3433  1  0.81250000  0.37500000  0.56250000  1
  Cr  Cr3434  1  0.81250000  0.37500000  0.62500000  1
  Ti  Ti3435  1  0.81250000  0.37500000  0.68750000  1
  V  V3436  1  0.81250000  0.37500000  0.75000000  1
  V  V3437  1  0.81250000  0.37500000  0.81250000  1
  V  V3438  1  0.81250000  0.37500000  0.87500000  1
  V  V3439  1  0.81250000  0.37500000  0.93750000  1
  V  V3440  1  0.81250000  0.43750000  0.00000000  1
  V  V3441  1  0.81250000  0.43750000  0.06250000  1
  V  V3442  1  0.81250000  0.43750000  0.12500000  1
  V  V3443  1  0.81250000  0.43750000  0.18750000  1
  V  V3444  1  0.81250000  0.43750000  0.25000000  1
  Ti  Ti3445  1  0.81250000  0.43750000  0.31250000  1
  V  V3446  1  0.81250000  0.43750000  0.37500000  1
  V  V3447  1  0.81250000  0.43750000  0.43750000  1
  V  V3448  1  0.81250000  0.43750000  0.50000000  1
  V  V3449  1  0.81250000  0.43750000  0.56250000  1
  V  V3450  1  0.81250000  0.43750000  0.62500000  1
  V  V3451  1  0.81250000  0.43750000  0.68750000  1
  Cr  Cr3452  1  0.81250000  0.43750000  0.75000000  1
  Ti  Ti3453  1  0.81250000  0.43750000  0.81250000  1
  Ti  Ti3454  1  0.81250000  0.43750000  0.87500000  1
  Cr  Cr3455  1  0.81250000  0.43750000  0.93750000  1
  Ti  Ti3456  1  0.81250000  0.50000000  0.00000000  1
  Cr  Cr3457  1  0.81250000  0.50000000  0.06250000  1
  Ti  Ti3458  1  0.81250000  0.50000000  0.12500000  1
  Ti  Ti3459  1  0.81250000  0.50000000  0.18750000  1
  Ti  Ti3460  1  0.81250000  0.50000000  0.25000000  1
  V  V3461  1  0.81250000  0.50000000  0.31250000  1
  Ti  Ti3462  1  0.81250000  0.50000000  0.37500000  1
  V  V3463  1  0.81250000  0.50000000  0.43750000  1
  V  V3464  1  0.81250000  0.50000000  0.50000000  1
  Ti  Ti3465  1  0.81250000  0.50000000  0.56250000  1
  V  V3466  1  0.81250000  0.50000000  0.62500000  1
  Ti  Ti3467  1  0.81250000  0.50000000  0.68750000  1
  V  V3468  1  0.81250000  0.50000000  0.75000000  1
  V  V3469  1  0.81250000  0.50000000  0.81250000  1
  Ti  Ti3470  1  0.81250000  0.50000000  0.87500000  1
  V  V3471  1  0.81250000  0.50000000  0.93750000  1
  V  V3472  1  0.81250000  0.56250000  0.00000000  1
  V  V3473  1  0.81250000  0.56250000  0.06250000  1
  V  V3474  1  0.81250000  0.56250000  0.12500000  1
  Ti  Ti3475  1  0.81250000  0.56250000  0.18750000  1
  V  V3476  1  0.81250000  0.56250000  0.25000000  1
  Ti  Ti3477  1  0.81250000  0.56250000  0.31250000  1
  V  V3478  1  0.81250000  0.56250000  0.37500000  1
  V  V3479  1  0.81250000  0.56250000  0.43750000  1
  V  V3480  1  0.81250000  0.56250000  0.50000000  1
  Ti  Ti3481  1  0.81250000  0.56250000  0.56250000  1
  Ti  Ti3482  1  0.81250000  0.56250000  0.62500000  1
  Cr  Cr3483  1  0.81250000  0.56250000  0.68750000  1
  V  V3484  1  0.81250000  0.56250000  0.75000000  1
  V  V3485  1  0.81250000  0.56250000  0.81250000  1
  V  V3486  1  0.81250000  0.56250000  0.87500000  1
  Ti  Ti3487  1  0.81250000  0.56250000  0.93750000  1
  V  V3488  1  0.81250000  0.62500000  0.00000000  1
  V  V3489  1  0.81250000  0.62500000  0.06250000  1
  V  V3490  1  0.81250000  0.62500000  0.12500000  1
  Cr  Cr3491  1  0.81250000  0.62500000  0.18750000  1
  Ti  Ti3492  1  0.81250000  0.62500000  0.25000000  1
  V  V3493  1  0.81250000  0.62500000  0.31250000  1
  Ti  Ti3494  1  0.81250000  0.62500000  0.37500000  1
  Cr  Cr3495  1  0.81250000  0.62500000  0.43750000  1
  Cr  Cr3496  1  0.81250000  0.62500000  0.50000000  1
  V  V3497  1  0.81250000  0.62500000  0.56250000  1
  Cr  Cr3498  1  0.81250000  0.62500000  0.62500000  1
  Ti  Ti3499  1  0.81250000  0.62500000  0.68750000  1
  V  V3500  1  0.81250000  0.62500000  0.75000000  1
  V  V3501  1  0.81250000  0.62500000  0.81250000  1
  V  V3502  1  0.81250000  0.62500000  0.87500000  1
  Ti  Ti3503  1  0.81250000  0.62500000  0.93750000  1
  V  V3504  1  0.81250000  0.68750000  0.00000000  1
  V  V3505  1  0.81250000  0.68750000  0.06250000  1
  V  V3506  1  0.81250000  0.68750000  0.12500000  1
  V  V3507  1  0.81250000  0.68750000  0.18750000  1
  Cr  Cr3508  1  0.81250000  0.68750000  0.25000000  1
  V  V3509  1  0.81250000  0.68750000  0.31250000  1
  V  V3510  1  0.81250000  0.68750000  0.37500000  1
  Ti  Ti3511  1  0.81250000  0.68750000  0.43750000  1
  V  V3512  1  0.81250000  0.68750000  0.50000000  1
  V  V3513  1  0.81250000  0.68750000  0.56250000  1
  V  V3514  1  0.81250000  0.68750000  0.62500000  1
  V  V3515  1  0.81250000  0.68750000  0.68750000  1
  V  V3516  1  0.81250000  0.68750000  0.75000000  1
  Ti  Ti3517  1  0.81250000  0.68750000  0.81250000  1
  V  V3518  1  0.81250000  0.68750000  0.87500000  1
  V  V3519  1  0.81250000  0.68750000  0.93750000  1
  Ti  Ti3520  1  0.81250000  0.75000000  0.00000000  1
  Ti  Ti3521  1  0.81250000  0.75000000  0.06250000  1
  V  V3522  1  0.81250000  0.75000000  0.12500000  1
  Ti  Ti3523  1  0.81250000  0.75000000  0.18750000  1
  Ti  Ti3524  1  0.81250000  0.75000000  0.25000000  1
  Ti  Ti3525  1  0.81250000  0.75000000  0.31250000  1
  Ti  Ti3526  1  0.81250000  0.75000000  0.37500000  1
  V  V3527  1  0.81250000  0.75000000  0.43750000  1
  V  V3528  1  0.81250000  0.75000000  0.50000000  1
  V  V3529  1  0.81250000  0.75000000  0.56250000  1
  Ti  Ti3530  1  0.81250000  0.75000000  0.62500000  1
  Ti  Ti3531  1  0.81250000  0.75000000  0.68750000  1
  V  V3532  1  0.81250000  0.75000000  0.75000000  1
  V  V3533  1  0.81250000  0.75000000  0.81250000  1
  V  V3534  1  0.81250000  0.75000000  0.87500000  1
  V  V3535  1  0.81250000  0.75000000  0.93750000  1
  Ti  Ti3536  1  0.81250000  0.81250000  0.00000000  1
  Ti  Ti3537  1  0.81250000  0.81250000  0.06250000  1
  V  V3538  1  0.81250000  0.81250000  0.12500000  1
  V  V3539  1  0.81250000  0.81250000  0.18750000  1
  Cr  Cr3540  1  0.81250000  0.81250000  0.25000000  1
  V  V3541  1  0.81250000  0.81250000  0.31250000  1
  Ti  Ti3542  1  0.81250000  0.81250000  0.37500000  1
  Ti  Ti3543  1  0.81250000  0.81250000  0.43750000  1
  Cr  Cr3544  1  0.81250000  0.81250000  0.50000000  1
  V  V3545  1  0.81250000  0.81250000  0.56250000  1
  Ti  Ti3546  1  0.81250000  0.81250000  0.62500000  1
  Ti  Ti3547  1  0.81250000  0.81250000  0.68750000  1
  Ti  Ti3548  1  0.81250000  0.81250000  0.75000000  1
  V  V3549  1  0.81250000  0.81250000  0.81250000  1
  Ti  Ti3550  1  0.81250000  0.81250000  0.87500000  1
  Cr  Cr3551  1  0.81250000  0.81250000  0.93750000  1
  V  V3552  1  0.81250000  0.87500000  0.00000000  1
  Ti  Ti3553  1  0.81250000  0.87500000  0.06250000  1
  Ti  Ti3554  1  0.81250000  0.87500000  0.12500000  1
  V  V3555  1  0.81250000  0.87500000  0.18750000  1
  V  V3556  1  0.81250000  0.87500000  0.25000000  1
  V  V3557  1  0.81250000  0.87500000  0.31250000  1
  V  V3558  1  0.81250000  0.87500000  0.37500000  1
  V  V3559  1  0.81250000  0.87500000  0.43750000  1
  V  V3560  1  0.81250000  0.87500000  0.50000000  1
  V  V3561  1  0.81250000  0.87500000  0.56250000  1
  V  V3562  1  0.81250000  0.87500000  0.62500000  1
  V  V3563  1  0.81250000  0.87500000  0.68750000  1
  V  V3564  1  0.81250000  0.87500000  0.75000000  1
  V  V3565  1  0.81250000  0.87500000  0.81250000  1
  V  V3566  1  0.81250000  0.87500000  0.87500000  1
  Ti  Ti3567  1  0.81250000  0.87500000  0.93750000  1
  V  V3568  1  0.81250000  0.93750000  0.00000000  1
  Cr  Cr3569  1  0.81250000  0.93750000  0.06250000  1
  Cr  Cr3570  1  0.81250000  0.93750000  0.12500000  1
  V  V3571  1  0.81250000  0.93750000  0.18750000  1
  Ti  Ti3572  1  0.81250000  0.93750000  0.25000000  1
  V  V3573  1  0.81250000  0.93750000  0.31250000  1
  V  V3574  1  0.81250000  0.93750000  0.37500000  1
  V  V3575  1  0.81250000  0.93750000  0.43750000  1
  V  V3576  1  0.81250000  0.93750000  0.50000000  1
  Ti  Ti3577  1  0.81250000  0.93750000  0.56250000  1
  V  V3578  1  0.81250000  0.93750000  0.62500000  1
  V  V3579  1  0.81250000  0.93750000  0.68750000  1
  Cr  Cr3580  1  0.81250000  0.93750000  0.75000000  1
  V  V3581  1  0.81250000  0.93750000  0.81250000  1
  Cr  Cr3582  1  0.81250000  0.93750000  0.87500000  1
  Ti  Ti3583  1  0.81250000  0.93750000  0.93750000  1
  V  V3584  1  0.87500000  0.00000000  0.00000000  1
  V  V3585  1  0.87500000  0.00000000  0.06250000  1
  V  V3586  1  0.87500000  0.00000000  0.12500000  1
  Ti  Ti3587  1  0.87500000  0.00000000  0.18750000  1
  Ti  Ti3588  1  0.87500000  0.00000000  0.25000000  1
  V  V3589  1  0.87500000  0.00000000  0.31250000  1
  Ti  Ti3590  1  0.87500000  0.00000000  0.37500000  1
  V  V3591  1  0.87500000  0.00000000  0.43750000  1
  V  V3592  1  0.87500000  0.00000000  0.50000000  1
  V  V3593  1  0.87500000  0.00000000  0.56250000  1
  V  V3594  1  0.87500000  0.00000000  0.62500000  1
  V  V3595  1  0.87500000  0.00000000  0.68750000  1
  V  V3596  1  0.87500000  0.00000000  0.75000000  1
  V  V3597  1  0.87500000  0.00000000  0.81250000  1
  V  V3598  1  0.87500000  0.00000000  0.87500000  1
  Ti  Ti3599  1  0.87500000  0.00000000  0.93750000  1
  Ti  Ti3600  1  0.87500000  0.06250000  0.00000000  1
  Cr  Cr3601  1  0.87500000  0.06250000  0.06250000  1
  V  V3602  1  0.87500000  0.06250000  0.12500000  1
  V  V3603  1  0.87500000  0.06250000  0.18750000  1
  V  V3604  1  0.87500000  0.06250000  0.25000000  1
  Ti  Ti3605  1  0.87500000  0.06250000  0.31250000  1
  V  V3606  1  0.87500000  0.06250000  0.37500000  1
  V  V3607  1  0.87500000  0.06250000  0.43750000  1
  V  V3608  1  0.87500000  0.06250000  0.50000000  1
  Ti  Ti3609  1  0.87500000  0.06250000  0.56250000  1
  Cr  Cr3610  1  0.87500000  0.06250000  0.62500000  1
  V  V3611  1  0.87500000  0.06250000  0.68750000  1
  V  V3612  1  0.87500000  0.06250000  0.75000000  1
  V  V3613  1  0.87500000  0.06250000  0.81250000  1
  V  V3614  1  0.87500000  0.06250000  0.87500000  1
  Cr  Cr3615  1  0.87500000  0.06250000  0.93750000  1
  Cr  Cr3616  1  0.87500000  0.12500000  0.00000000  1
  Ti  Ti3617  1  0.87500000  0.12500000  0.06250000  1
  Cr  Cr3618  1  0.87500000  0.12500000  0.12500000  1
  V  V3619  1  0.87500000  0.12500000  0.18750000  1
  V  V3620  1  0.87500000  0.12500000  0.25000000  1
  V  V3621  1  0.87500000  0.12500000  0.31250000  1
  Cr  Cr3622  1  0.87500000  0.12500000  0.37500000  1
  Cr  Cr3623  1  0.87500000  0.12500000  0.43750000  1
  Ti  Ti3624  1  0.87500000  0.12500000  0.50000000  1
  V  V3625  1  0.87500000  0.12500000  0.56250000  1
  V  V3626  1  0.87500000  0.12500000  0.62500000  1
  V  V3627  1  0.87500000  0.12500000  0.68750000  1
  Ti  Ti3628  1  0.87500000  0.12500000  0.75000000  1
  V  V3629  1  0.87500000  0.12500000  0.81250000  1
  Ti  Ti3630  1  0.87500000  0.12500000  0.87500000  1
  V  V3631  1  0.87500000  0.12500000  0.93750000  1
  V  V3632  1  0.87500000  0.18750000  0.00000000  1
  Ti  Ti3633  1  0.87500000  0.18750000  0.06250000  1
  V  V3634  1  0.87500000  0.18750000  0.12500000  1
  Cr  Cr3635  1  0.87500000  0.18750000  0.18750000  1
  Ti  Ti3636  1  0.87500000  0.18750000  0.25000000  1
  Ti  Ti3637  1  0.87500000  0.18750000  0.31250000  1
  V  V3638  1  0.87500000  0.18750000  0.37500000  1
  Ti  Ti3639  1  0.87500000  0.18750000  0.43750000  1
  V  V3640  1  0.87500000  0.18750000  0.50000000  1
  Ti  Ti3641  1  0.87500000  0.18750000  0.56250000  1
  V  V3642  1  0.87500000  0.18750000  0.62500000  1
  Ti  Ti3643  1  0.87500000  0.18750000  0.68750000  1
  V  V3644  1  0.87500000  0.18750000  0.75000000  1
  V  V3645  1  0.87500000  0.18750000  0.81250000  1
  Ti  Ti3646  1  0.87500000  0.18750000  0.87500000  1
  V  V3647  1  0.87500000  0.18750000  0.93750000  1
  Ti  Ti3648  1  0.87500000  0.25000000  0.00000000  1
  V  V3649  1  0.87500000  0.25000000  0.06250000  1
  Ti  Ti3650  1  0.87500000  0.25000000  0.12500000  1
  V  V3651  1  0.87500000  0.25000000  0.18750000  1
  Ti  Ti3652  1  0.87500000  0.25000000  0.25000000  1
  V  V3653  1  0.87500000  0.25000000  0.31250000  1
  V  V3654  1  0.87500000  0.25000000  0.37500000  1
  V  V3655  1  0.87500000  0.25000000  0.43750000  1
  V  V3656  1  0.87500000  0.25000000  0.50000000  1
  Ti  Ti3657  1  0.87500000  0.25000000  0.56250000  1
  V  V3658  1  0.87500000  0.25000000  0.62500000  1
  V  V3659  1  0.87500000  0.25000000  0.68750000  1
  V  V3660  1  0.87500000  0.25000000  0.75000000  1
  Ti  Ti3661  1  0.87500000  0.25000000  0.81250000  1
  Ti  Ti3662  1  0.87500000  0.25000000  0.87500000  1
  Cr  Cr3663  1  0.87500000  0.25000000  0.93750000  1
  V  V3664  1  0.87500000  0.31250000  0.00000000  1
  V  V3665  1  0.87500000  0.31250000  0.06250000  1
  Ti  Ti3666  1  0.87500000  0.31250000  0.12500000  1
  Ti  Ti3667  1  0.87500000  0.31250000  0.18750000  1
  Ti  Ti3668  1  0.87500000  0.31250000  0.25000000  1
  V  V3669  1  0.87500000  0.31250000  0.31250000  1
  Ti  Ti3670  1  0.87500000  0.31250000  0.37500000  1
  V  V3671  1  0.87500000  0.31250000  0.43750000  1
  Cr  Cr3672  1  0.87500000  0.31250000  0.50000000  1
  V  V3673  1  0.87500000  0.31250000  0.56250000  1
  V  V3674  1  0.87500000  0.31250000  0.62500000  1
  V  V3675  1  0.87500000  0.31250000  0.68750000  1
  V  V3676  1  0.87500000  0.31250000  0.75000000  1
  V  V3677  1  0.87500000  0.31250000  0.81250000  1
  Ti  Ti3678  1  0.87500000  0.31250000  0.87500000  1
  Ti  Ti3679  1  0.87500000  0.31250000  0.93750000  1
  V  V3680  1  0.87500000  0.37500000  0.00000000  1
  V  V3681  1  0.87500000  0.37500000  0.06250000  1
  Ti  Ti3682  1  0.87500000  0.37500000  0.12500000  1
  Ti  Ti3683  1  0.87500000  0.37500000  0.18750000  1
  V  V3684  1  0.87500000  0.37500000  0.25000000  1
  V  V3685  1  0.87500000  0.37500000  0.31250000  1
  Ti  Ti3686  1  0.87500000  0.37500000  0.37500000  1
  V  V3687  1  0.87500000  0.37500000  0.43750000  1
  Ti  Ti3688  1  0.87500000  0.37500000  0.50000000  1
  V  V3689  1  0.87500000  0.37500000  0.56250000  1
  V  V3690  1  0.87500000  0.37500000  0.62500000  1
  V  V3691  1  0.87500000  0.37500000  0.68750000  1
  V  V3692  1  0.87500000  0.37500000  0.75000000  1
  V  V3693  1  0.87500000  0.37500000  0.81250000  1
  V  V3694  1  0.87500000  0.37500000  0.87500000  1
  V  V3695  1  0.87500000  0.37500000  0.93750000  1
  V  V3696  1  0.87500000  0.43750000  0.00000000  1
  V  V3697  1  0.87500000  0.43750000  0.06250000  1
  V  V3698  1  0.87500000  0.43750000  0.12500000  1
  Ti  Ti3699  1  0.87500000  0.43750000  0.18750000  1
  Ti  Ti3700  1  0.87500000  0.43750000  0.25000000  1
  V  V3701  1  0.87500000  0.43750000  0.31250000  1
  Ti  Ti3702  1  0.87500000  0.43750000  0.37500000  1
  Ti  Ti3703  1  0.87500000  0.43750000  0.43750000  1
  V  V3704  1  0.87500000  0.43750000  0.50000000  1
  Ti  Ti3705  1  0.87500000  0.43750000  0.56250000  1
  V  V3706  1  0.87500000  0.43750000  0.62500000  1
  Ti  Ti3707  1  0.87500000  0.43750000  0.68750000  1
  V  V3708  1  0.87500000  0.43750000  0.75000000  1
  V  V3709  1  0.87500000  0.43750000  0.81250000  1
  V  V3710  1  0.87500000  0.43750000  0.87500000  1
  V  V3711  1  0.87500000  0.43750000  0.93750000  1
  Ti  Ti3712  1  0.87500000  0.50000000  0.00000000  1
  Cr  Cr3713  1  0.87500000  0.50000000  0.06250000  1
  V  V3714  1  0.87500000  0.50000000  0.12500000  1
  V  V3715  1  0.87500000  0.50000000  0.18750000  1
  Ti  Ti3716  1  0.87500000  0.50000000  0.25000000  1
  V  V3717  1  0.87500000  0.50000000  0.31250000  1
  Ti  Ti3718  1  0.87500000  0.50000000  0.37500000  1
  Ti  Ti3719  1  0.87500000  0.50000000  0.43750000  1
  V  V3720  1  0.87500000  0.50000000  0.50000000  1
  Ti  Ti3721  1  0.87500000  0.50000000  0.56250000  1
  Ti  Ti3722  1  0.87500000  0.50000000  0.62500000  1
  V  V3723  1  0.87500000  0.50000000  0.68750000  1
  Ti  Ti3724  1  0.87500000  0.50000000  0.75000000  1
  Ti  Ti3725  1  0.87500000  0.50000000  0.81250000  1
  V  V3726  1  0.87500000  0.50000000  0.87500000  1
  V  V3727  1  0.87500000  0.50000000  0.93750000  1
  V  V3728  1  0.87500000  0.56250000  0.00000000  1
  Ti  Ti3729  1  0.87500000  0.56250000  0.06250000  1
  V  V3730  1  0.87500000  0.56250000  0.12500000  1
  Cr  Cr3731  1  0.87500000  0.56250000  0.18750000  1
  V  V3732  1  0.87500000  0.56250000  0.25000000  1
  Ti  Ti3733  1  0.87500000  0.56250000  0.31250000  1
  Ti  Ti3734  1  0.87500000  0.56250000  0.37500000  1
  V  V3735  1  0.87500000  0.56250000  0.43750000  1
  V  V3736  1  0.87500000  0.56250000  0.50000000  1
  V  V3737  1  0.87500000  0.56250000  0.56250000  1
  V  V3738  1  0.87500000  0.56250000  0.62500000  1
  V  V3739  1  0.87500000  0.56250000  0.68750000  1
  Ti  Ti3740  1  0.87500000  0.56250000  0.75000000  1
  V  V3741  1  0.87500000  0.56250000  0.81250000  1
  Ti  Ti3742  1  0.87500000  0.56250000  0.87500000  1
  Ti  Ti3743  1  0.87500000  0.56250000  0.93750000  1
  Cr  Cr3744  1  0.87500000  0.62500000  0.00000000  1
  V  V3745  1  0.87500000  0.62500000  0.06250000  1
  V  V3746  1  0.87500000  0.62500000  0.12500000  1
  V  V3747  1  0.87500000  0.62500000  0.18750000  1
  V  V3748  1  0.87500000  0.62500000  0.25000000  1
  V  V3749  1  0.87500000  0.62500000  0.31250000  1
  Cr  Cr3750  1  0.87500000  0.62500000  0.37500000  1
  Ti  Ti3751  1  0.87500000  0.62500000  0.43750000  1
  V  V3752  1  0.87500000  0.62500000  0.50000000  1
  V  V3753  1  0.87500000  0.62500000  0.56250000  1
  V  V3754  1  0.87500000  0.62500000  0.62500000  1
  Ti  Ti3755  1  0.87500000  0.62500000  0.68750000  1
  V  V3756  1  0.87500000  0.62500000  0.75000000  1
  V  V3757  1  0.87500000  0.62500000  0.81250000  1
  Ti  Ti3758  1  0.87500000  0.62500000  0.87500000  1
  Ti  Ti3759  1  0.87500000  0.62500000  0.93750000  1
  V  V3760  1  0.87500000  0.68750000  0.00000000  1
  Ti  Ti3761  1  0.87500000  0.68750000  0.06250000  1
  Ti  Ti3762  1  0.87500000  0.68750000  0.12500000  1
  Cr  Cr3763  1  0.87500000  0.68750000  0.18750000  1
  V  V3764  1  0.87500000  0.68750000  0.25000000  1
  V  V3765  1  0.87500000  0.68750000  0.31250000  1
  V  V3766  1  0.87500000  0.68750000  0.37500000  1
  Cr  Cr3767  1  0.87500000  0.68750000  0.43750000  1
  Ti  Ti3768  1  0.87500000  0.68750000  0.50000000  1
  Cr  Cr3769  1  0.87500000  0.68750000  0.56250000  1
  V  V3770  1  0.87500000  0.68750000  0.62500000  1
  Cr  Cr3771  1  0.87500000  0.68750000  0.68750000  1
  V  V3772  1  0.87500000  0.68750000  0.75000000  1
  V  V3773  1  0.87500000  0.68750000  0.81250000  1
  V  V3774  1  0.87500000  0.68750000  0.87500000  1
  Ti  Ti3775  1  0.87500000  0.68750000  0.93750000  1
  V  V3776  1  0.87500000  0.75000000  0.00000000  1
  Cr  Cr3777  1  0.87500000  0.75000000  0.06250000  1
  V  V3778  1  0.87500000  0.75000000  0.12500000  1
  V  V3779  1  0.87500000  0.75000000  0.18750000  1
  V  V3780  1  0.87500000  0.75000000  0.25000000  1
  V  V3781  1  0.87500000  0.75000000  0.31250000  1
  V  V3782  1  0.87500000  0.75000000  0.37500000  1
  V  V3783  1  0.87500000  0.75000000  0.43750000  1
  Ti  Ti3784  1  0.87500000  0.75000000  0.50000000  1
  Ti  Ti3785  1  0.87500000  0.75000000  0.56250000  1
  V  V3786  1  0.87500000  0.75000000  0.62500000  1
  Ti  Ti3787  1  0.87500000  0.75000000  0.68750000  1
  V  V3788  1  0.87500000  0.75000000  0.75000000  1
  V  V3789  1  0.87500000  0.75000000  0.81250000  1
  Cr  Cr3790  1  0.87500000  0.75000000  0.87500000  1
  V  V3791  1  0.87500000  0.75000000  0.93750000  1
  V  V3792  1  0.87500000  0.81250000  0.00000000  1
  Ti  Ti3793  1  0.87500000  0.81250000  0.06250000  1
  V  V3794  1  0.87500000  0.81250000  0.12500000  1
  V  V3795  1  0.87500000  0.81250000  0.18750000  1
  V  V3796  1  0.87500000  0.81250000  0.25000000  1
  V  V3797  1  0.87500000  0.81250000  0.31250000  1
  Cr  Cr3798  1  0.87500000  0.81250000  0.37500000  1
  V  V3799  1  0.87500000  0.81250000  0.43750000  1
  V  V3800  1  0.87500000  0.81250000  0.50000000  1
  Ti  Ti3801  1  0.87500000  0.81250000  0.56250000  1
  Ti  Ti3802  1  0.87500000  0.81250000  0.62500000  1
  V  V3803  1  0.87500000  0.81250000  0.68750000  1
  V  V3804  1  0.87500000  0.81250000  0.75000000  1
  V  V3805  1  0.87500000  0.81250000  0.81250000  1
  V  V3806  1  0.87500000  0.81250000  0.87500000  1
  V  V3807  1  0.87500000  0.81250000  0.93750000  1
  V  V3808  1  0.87500000  0.87500000  0.00000000  1
  Ti  Ti3809  1  0.87500000  0.87500000  0.06250000  1
  V  V3810  1  0.87500000  0.87500000  0.12500000  1
  V  V3811  1  0.87500000  0.87500000  0.18750000  1
  Cr  Cr3812  1  0.87500000  0.87500000  0.25000000  1
  Ti  Ti3813  1  0.87500000  0.87500000  0.31250000  1
  V  V3814  1  0.87500000  0.87500000  0.37500000  1
  V  V3815  1  0.87500000  0.87500000  0.43750000  1
  V  V3816  1  0.87500000  0.87500000  0.50000000  1
  Ti  Ti3817  1  0.87500000  0.87500000  0.56250000  1
  V  V3818  1  0.87500000  0.87500000  0.62500000  1
  V  V3819  1  0.87500000  0.87500000  0.68750000  1
  V  V3820  1  0.87500000  0.87500000  0.75000000  1
  V  V3821  1  0.87500000  0.87500000  0.81250000  1
  Cr  Cr3822  1  0.87500000  0.87500000  0.87500000  1
  Ti  Ti3823  1  0.87500000  0.87500000  0.93750000  1
  V  V3824  1  0.87500000  0.93750000  0.00000000  1
  Ti  Ti3825  1  0.87500000  0.93750000  0.06250000  1
  V  V3826  1  0.87500000  0.93750000  0.12500000  1
  Ti  Ti3827  1  0.87500000  0.93750000  0.18750000  1
  Cr  Cr3828  1  0.87500000  0.93750000  0.25000000  1
  V  V3829  1  0.87500000  0.93750000  0.31250000  1
  V  V3830  1  0.87500000  0.93750000  0.37500000  1
  V  V3831  1  0.87500000  0.93750000  0.43750000  1
  V  V3832  1  0.87500000  0.93750000  0.50000000  1
  V  V3833  1  0.87500000  0.93750000  0.56250000  1
  V  V3834  1  0.87500000  0.93750000  0.62500000  1
  V  V3835  1  0.87500000  0.93750000  0.68750000  1
  V  V3836  1  0.87500000  0.93750000  0.75000000  1
  V  V3837  1  0.87500000  0.93750000  0.81250000  1
  V  V3838  1  0.87500000  0.93750000  0.87500000  1
  V  V3839  1  0.87500000  0.93750000  0.93750000  1
  V  V3840  1  0.93750000  0.00000000  0.00000000  1
  Ti  Ti3841  1  0.93750000  0.00000000  0.06250000  1
  V  V3842  1  0.93750000  0.00000000  0.12500000  1
  V  V3843  1  0.93750000  0.00000000  0.18750000  1
  V  V3844  1  0.93750000  0.00000000  0.25000000  1
  V  V3845  1  0.93750000  0.00000000  0.31250000  1
  Ti  Ti3846  1  0.93750000  0.00000000  0.37500000  1
  Ti  Ti3847  1  0.93750000  0.00000000  0.43750000  1
  Ti  Ti3848  1  0.93750000  0.00000000  0.50000000  1
  V  V3849  1  0.93750000  0.00000000  0.56250000  1
  V  V3850  1  0.93750000  0.00000000  0.62500000  1
  V  V3851  1  0.93750000  0.00000000  0.68750000  1
  V  V3852  1  0.93750000  0.00000000  0.75000000  1
  V  V3853  1  0.93750000  0.00000000  0.81250000  1
  V  V3854  1  0.93750000  0.00000000  0.87500000  1
  V  V3855  1  0.93750000  0.00000000  0.93750000  1
  Cr  Cr3856  1  0.93750000  0.06250000  0.00000000  1
  V  V3857  1  0.93750000  0.06250000  0.06250000  1
  Ti  Ti3858  1  0.93750000  0.06250000  0.12500000  1
  V  V3859  1  0.93750000  0.06250000  0.18750000  1
  V  V3860  1  0.93750000  0.06250000  0.25000000  1
  V  V3861  1  0.93750000  0.06250000  0.31250000  1
  V  V3862  1  0.93750000  0.06250000  0.37500000  1
  Ti  Ti3863  1  0.93750000  0.06250000  0.43750000  1
  V  V3864  1  0.93750000  0.06250000  0.50000000  1
  Ti  Ti3865  1  0.93750000  0.06250000  0.56250000  1
  V  V3866  1  0.93750000  0.06250000  0.62500000  1
  V  V3867  1  0.93750000  0.06250000  0.68750000  1
  V  V3868  1  0.93750000  0.06250000  0.75000000  1
  Cr  Cr3869  1  0.93750000  0.06250000  0.81250000  1
  V  V3870  1  0.93750000  0.06250000  0.87500000  1
  V  V3871  1  0.93750000  0.06250000  0.93750000  1
  V  V3872  1  0.93750000  0.12500000  0.00000000  1
  Cr  Cr3873  1  0.93750000  0.12500000  0.06250000  1
  V  V3874  1  0.93750000  0.12500000  0.12500000  1
  Ti  Ti3875  1  0.93750000  0.12500000  0.18750000  1
  V  V3876  1  0.93750000  0.12500000  0.25000000  1
  V  V3877  1  0.93750000  0.12500000  0.31250000  1
  V  V3878  1  0.93750000  0.12500000  0.37500000  1
  V  V3879  1  0.93750000  0.12500000  0.43750000  1
  V  V3880  1  0.93750000  0.12500000  0.50000000  1
  Cr  Cr3881  1  0.93750000  0.12500000  0.56250000  1
  Cr  Cr3882  1  0.93750000  0.12500000  0.62500000  1
  V  V3883  1  0.93750000  0.12500000  0.68750000  1
  Cr  Cr3884  1  0.93750000  0.12500000  0.75000000  1
  Cr  Cr3885  1  0.93750000  0.12500000  0.81250000  1
  V  V3886  1  0.93750000  0.12500000  0.87500000  1
  V  V3887  1  0.93750000  0.12500000  0.93750000  1
  V  V3888  1  0.93750000  0.18750000  0.00000000  1
  Ti  Ti3889  1  0.93750000  0.18750000  0.06250000  1
  V  V3890  1  0.93750000  0.18750000  0.12500000  1
  Ti  Ti3891  1  0.93750000  0.18750000  0.18750000  1
  V  V3892  1  0.93750000  0.18750000  0.25000000  1
  Cr  Cr3893  1  0.93750000  0.18750000  0.31250000  1
  V  V3894  1  0.93750000  0.18750000  0.37500000  1
  Ti  Ti3895  1  0.93750000  0.18750000  0.43750000  1
  V  V3896  1  0.93750000  0.18750000  0.50000000  1
  V  V3897  1  0.93750000  0.18750000  0.56250000  1
  Cr  Cr3898  1  0.93750000  0.18750000  0.62500000  1
  Ti  Ti3899  1  0.93750000  0.18750000  0.68750000  1
  V  V3900  1  0.93750000  0.18750000  0.75000000  1
  V  V3901  1  0.93750000  0.18750000  0.81250000  1
  V  V3902  1  0.93750000  0.18750000  0.87500000  1
  Ti  Ti3903  1  0.93750000  0.18750000  0.93750000  1
  Cr  Cr3904  1  0.93750000  0.25000000  0.00000000  1
  Ti  Ti3905  1  0.93750000  0.25000000  0.06250000  1
  Ti  Ti3906  1  0.93750000  0.25000000  0.12500000  1
  V  V3907  1  0.93750000  0.25000000  0.18750000  1
  V  V3908  1  0.93750000  0.25000000  0.25000000  1
  V  V3909  1  0.93750000  0.25000000  0.31250000  1
  Ti  Ti3910  1  0.93750000  0.25000000  0.37500000  1
  V  V3911  1  0.93750000  0.25000000  0.43750000  1
  Ti  Ti3912  1  0.93750000  0.25000000  0.50000000  1
  V  V3913  1  0.93750000  0.25000000  0.56250000  1
  Ti  Ti3914  1  0.93750000  0.25000000  0.62500000  1
  V  V3915  1  0.93750000  0.25000000  0.68750000  1
  Ti  Ti3916  1  0.93750000  0.25000000  0.75000000  1
  V  V3917  1  0.93750000  0.25000000  0.81250000  1
  V  V3918  1  0.93750000  0.25000000  0.87500000  1
  Cr  Cr3919  1  0.93750000  0.25000000  0.93750000  1
  V  V3920  1  0.93750000  0.31250000  0.00000000  1
  V  V3921  1  0.93750000  0.31250000  0.06250000  1
  Ti  Ti3922  1  0.93750000  0.31250000  0.12500000  1
  Ti  Ti3923  1  0.93750000  0.31250000  0.18750000  1
  Cr  Cr3924  1  0.93750000  0.31250000  0.25000000  1
  Ti  Ti3925  1  0.93750000  0.31250000  0.31250000  1
  V  V3926  1  0.93750000  0.31250000  0.37500000  1
  Ti  Ti3927  1  0.93750000  0.31250000  0.43750000  1
  Ti  Ti3928  1  0.93750000  0.31250000  0.50000000  1
  Cr  Cr3929  1  0.93750000  0.31250000  0.56250000  1
  Ti  Ti3930  1  0.93750000  0.31250000  0.62500000  1
  Cr  Cr3931  1  0.93750000  0.31250000  0.68750000  1
  V  V3932  1  0.93750000  0.31250000  0.75000000  1
  V  V3933  1  0.93750000  0.31250000  0.81250000  1
  V  V3934  1  0.93750000  0.31250000  0.87500000  1
  Ti  Ti3935  1  0.93750000  0.31250000  0.93750000  1
  V  V3936  1  0.93750000  0.37500000  0.00000000  1
  V  V3937  1  0.93750000  0.37500000  0.06250000  1
  V  V3938  1  0.93750000  0.37500000  0.12500000  1
  Ti  Ti3939  1  0.93750000  0.37500000  0.18750000  1
  V  V3940  1  0.93750000  0.37500000  0.25000000  1
  Ti  Ti3941  1  0.93750000  0.37500000  0.31250000  1
  Ti  Ti3942  1  0.93750000  0.37500000  0.37500000  1
  V  V3943  1  0.93750000  0.37500000  0.43750000  1
  V  V3944  1  0.93750000  0.37500000  0.50000000  1
  V  V3945  1  0.93750000  0.37500000  0.56250000  1
  Ti  Ti3946  1  0.93750000  0.37500000  0.62500000  1
  V  V3947  1  0.93750000  0.37500000  0.68750000  1
  V  V3948  1  0.93750000  0.37500000  0.75000000  1
  V  V3949  1  0.93750000  0.37500000  0.81250000  1
  Ti  Ti3950  1  0.93750000  0.37500000  0.87500000  1
  V  V3951  1  0.93750000  0.37500000  0.93750000  1
  Cr  Cr3952  1  0.93750000  0.43750000  0.00000000  1
  V  V3953  1  0.93750000  0.43750000  0.06250000  1
  V  V3954  1  0.93750000  0.43750000  0.12500000  1
  V  V3955  1  0.93750000  0.43750000  0.18750000  1
  V  V3956  1  0.93750000  0.43750000  0.25000000  1
  Ti  Ti3957  1  0.93750000  0.43750000  0.31250000  1
  V  V3958  1  0.93750000  0.43750000  0.37500000  1
  V  V3959  1  0.93750000  0.43750000  0.43750000  1
  V  V3960  1  0.93750000  0.43750000  0.50000000  1
  V  V3961  1  0.93750000  0.43750000  0.56250000  1
  V  V3962  1  0.93750000  0.43750000  0.62500000  1
  V  V3963  1  0.93750000  0.43750000  0.68750000  1
  Ti  Ti3964  1  0.93750000  0.43750000  0.75000000  1
  V  V3965  1  0.93750000  0.43750000  0.81250000  1
  Ti  Ti3966  1  0.93750000  0.43750000  0.87500000  1
  Cr  Cr3967  1  0.93750000  0.43750000  0.93750000  1
  Ti  Ti3968  1  0.93750000  0.50000000  0.00000000  1
  Ti  Ti3969  1  0.93750000  0.50000000  0.06250000  1
  Ti  Ti3970  1  0.93750000  0.50000000  0.12500000  1
  V  V3971  1  0.93750000  0.50000000  0.18750000  1
  V  V3972  1  0.93750000  0.50000000  0.25000000  1
  V  V3973  1  0.93750000  0.50000000  0.31250000  1
  V  V3974  1  0.93750000  0.50000000  0.37500000  1
  Ti  Ti3975  1  0.93750000  0.50000000  0.43750000  1
  V  V3976  1  0.93750000  0.50000000  0.50000000  1
  Ti  Ti3977  1  0.93750000  0.50000000  0.56250000  1
  V  V3978  1  0.93750000  0.50000000  0.62500000  1
  V  V3979  1  0.93750000  0.50000000  0.68750000  1
  V  V3980  1  0.93750000  0.50000000  0.75000000  1
  V  V3981  1  0.93750000  0.50000000  0.81250000  1
  V  V3982  1  0.93750000  0.50000000  0.87500000  1
  V  V3983  1  0.93750000  0.50000000  0.93750000  1
  Cr  Cr3984  1  0.93750000  0.56250000  0.00000000  1
  V  V3985  1  0.93750000  0.56250000  0.06250000  1
  V  V3986  1  0.93750000  0.56250000  0.12500000  1
  V  V3987  1  0.93750000  0.56250000  0.18750000  1
  Cr  Cr3988  1  0.93750000  0.56250000  0.25000000  1
  V  V3989  1  0.93750000  0.56250000  0.31250000  1
  Ti  Ti3990  1  0.93750000  0.56250000  0.37500000  1
  Ti  Ti3991  1  0.93750000  0.56250000  0.43750000  1
  Cr  Cr3992  1  0.93750000  0.56250000  0.50000000  1
  Ti  Ti3993  1  0.93750000  0.56250000  0.56250000  1
  V  V3994  1  0.93750000  0.56250000  0.62500000  1
  V  V3995  1  0.93750000  0.56250000  0.68750000  1
  V  V3996  1  0.93750000  0.56250000  0.75000000  1
  V  V3997  1  0.93750000  0.56250000  0.81250000  1
  V  V3998  1  0.93750000  0.56250000  0.87500000  1
  V  V3999  1  0.93750000  0.56250000  0.93750000  1
  V  V4000  1  0.93750000  0.62500000  0.00000000  1
  V  V4001  1  0.93750000  0.62500000  0.06250000  1
  Cr  Cr4002  1  0.93750000  0.62500000  0.12500000  1
  Cr  Cr4003  1  0.93750000  0.62500000  0.18750000  1
  Ti  Ti4004  1  0.93750000  0.62500000  0.25000000  1
  V  V4005  1  0.93750000  0.62500000  0.31250000  1
  V  V4006  1  0.93750000  0.62500000  0.37500000  1
  V  V4007  1  0.93750000  0.62500000  0.43750000  1
  Ti  Ti4008  1  0.93750000  0.62500000  0.50000000  1
  V  V4009  1  0.93750000  0.62500000  0.56250000  1
  V  V4010  1  0.93750000  0.62500000  0.62500000  1
  Ti  Ti4011  1  0.93750000  0.62500000  0.68750000  1
  V  V4012  1  0.93750000  0.62500000  0.75000000  1
  V  V4013  1  0.93750000  0.62500000  0.81250000  1
  Ti  Ti4014  1  0.93750000  0.62500000  0.87500000  1
  V  V4015  1  0.93750000  0.62500000  0.93750000  1
  Cr  Cr4016  1  0.93750000  0.68750000  0.00000000  1
  V  V4017  1  0.93750000  0.68750000  0.06250000  1
  Cr  Cr4018  1  0.93750000  0.68750000  0.12500000  1
  V  V4019  1  0.93750000  0.68750000  0.18750000  1
  V  V4020  1  0.93750000  0.68750000  0.25000000  1
  V  V4021  1  0.93750000  0.68750000  0.31250000  1
  V  V4022  1  0.93750000  0.68750000  0.37500000  1
  V  V4023  1  0.93750000  0.68750000  0.43750000  1
  Ti  Ti4024  1  0.93750000  0.68750000  0.50000000  1
  Ti  Ti4025  1  0.93750000  0.68750000  0.56250000  1
  V  V4026  1  0.93750000  0.68750000  0.62500000  1
  V  V4027  1  0.93750000  0.68750000  0.68750000  1
  Ti  Ti4028  1  0.93750000  0.68750000  0.75000000  1
  Cr  Cr4029  1  0.93750000  0.68750000  0.81250000  1
  V  V4030  1  0.93750000  0.68750000  0.87500000  1
  Ti  Ti4031  1  0.93750000  0.68750000  0.93750000  1
  V  V4032  1  0.93750000  0.75000000  0.00000000  1
  Ti  Ti4033  1  0.93750000  0.75000000  0.06250000  1
  Ti  Ti4034  1  0.93750000  0.75000000  0.12500000  1
  V  V4035  1  0.93750000  0.75000000  0.18750000  1
  V  V4036  1  0.93750000  0.75000000  0.25000000  1
  Cr  Cr4037  1  0.93750000  0.75000000  0.31250000  1
  Ti  Ti4038  1  0.93750000  0.75000000  0.37500000  1
  V  V4039  1  0.93750000  0.75000000  0.43750000  1
  V  V4040  1  0.93750000  0.75000000  0.50000000  1
  V  V4041  1  0.93750000  0.75000000  0.56250000  1
  Cr  Cr4042  1  0.93750000  0.75000000  0.62500000  1
  V  V4043  1  0.93750000  0.75000000  0.68750000  1
  V  V4044  1  0.93750000  0.75000000  0.75000000  1
  Ti  Ti4045  1  0.93750000  0.75000000  0.81250000  1
  V  V4046  1  0.93750000  0.75000000  0.87500000  1
  Ti  Ti4047  1  0.93750000  0.75000000  0.93750000  1
  Ti  Ti4048  1  0.93750000  0.81250000  0.00000000  1
  Cr  Cr4049  1  0.93750000  0.81250000  0.06250000  1
  Ti  Ti4050  1  0.93750000  0.81250000  0.12500000  1
  V  V4051  1  0.93750000  0.81250000  0.18750000  1
  V  V4052  1  0.93750000  0.81250000  0.25000000  1
  V  V4053  1  0.93750000  0.81250000  0.31250000  1
  V  V4054  1  0.93750000  0.81250000  0.37500000  1
  V  V4055  1  0.93750000  0.81250000  0.43750000  1
  V  V4056  1  0.93750000  0.81250000  0.50000000  1
  V  V4057  1  0.93750000  0.81250000  0.56250000  1
  V  V4058  1  0.93750000  0.81250000  0.62500000  1
  Cr  Cr4059  1  0.93750000  0.81250000  0.68750000  1
  V  V4060  1  0.93750000  0.81250000  0.75000000  1
  V  V4061  1  0.93750000  0.81250000  0.81250000  1
  Ti  Ti4062  1  0.93750000  0.81250000  0.87500000  1
  Ti  Ti4063  1  0.93750000  0.81250000  0.93750000  1
  Cr  Cr4064  1  0.93750000  0.87500000  0.00000000  1
  V  V4065  1  0.93750000  0.87500000  0.06250000  1
  V  V4066  1  0.93750000  0.87500000  0.12500000  1
  V  V4067  1  0.93750000  0.87500000  0.18750000  1
  V  V4068  1  0.93750000  0.87500000  0.25000000  1
  V  V4069  1  0.93750000  0.87500000  0.31250000  1
  Ti  Ti4070  1  0.93750000  0.87500000  0.37500000  1
  V  V4071  1  0.93750000  0.87500000  0.43750000  1
  V  V4072  1  0.93750000  0.87500000  0.50000000  1
  Ti  Ti4073  1  0.93750000  0.87500000  0.56250000  1
  V  V4074  1  0.93750000  0.87500000  0.62500000  1
  V  V4075  1  0.93750000  0.87500000  0.68750000  1
  Cr  Cr4076  1  0.93750000  0.87500000  0.75000000  1
  V  V4077  1  0.93750000  0.87500000  0.81250000  1
  V  V4078  1  0.93750000  0.87500000  0.87500000  1
  V  V4079  1  0.93750000  0.87500000  0.93750000  1
  Ti  Ti4080  1  0.93750000  0.93750000  0.00000000  1
  Ti  Ti4081  1  0.93750000  0.93750000  0.06250000  1
  V  V4082  1  0.93750000  0.93750000  0.12500000  1
  V  V4083  1  0.93750000  0.93750000  0.18750000  1
  V  V4084  1  0.93750000  0.93750000  0.25000000  1
  V  V4085  1  0.93750000  0.93750000  0.31250000  1
  V  V4086  1  0.93750000  0.93750000  0.37500000  1
  V  V4087  1  0.93750000  0.93750000  0.43750000  1
  Ti  Ti4088  1  0.93750000  0.93750000  0.50000000  1
  V  V4089  1  0.93750000  0.93750000  0.56250000  1
  V  V4090  1  0.93750000  0.93750000  0.62500000  1
  V  V4091  1  0.93750000  0.93750000  0.68750000  1
  V  V4092  1  0.93750000  0.93750000  0.75000000  1
  V  V4093  1  0.93750000  0.93750000  0.81250000  1
  V  V4094  1  0.93750000  0.93750000  0.87500000  1
  V  V4095  1  0.93750000  0.93750000  0.93750000  1
