# generated using pymatgen
data_Ti389V2478Cr1229
_symmetry_space_group_name_H-M   'P 1'
_cell_length_a   41.70778345
_cell_length_b   41.70778345
_cell_length_c   41.70778345
_cell_angle_alpha   109.47122063
_cell_angle_beta   109.47122063
_cell_angle_gamma   109.47122063
_symmetry_Int_Tables_number   1
_chemical_formula_structural   Ti389V2478Cr1229
_chemical_formula_sum   'Ti389 V2478 Cr1229'
_cell_volume   55850.80524800
_cell_formula_units_Z   1
loop_
 _symmetry_equiv_pos_site_id
 _symmetry_equiv_pos_as_xyz
  1  'x, y, z'
loop_
 _atom_site_type_symbol
 _atom_site_label
 _atom_site_symmetry_multiplicity
 _atom_site_fract_x
 _atom_site_fract_y
 _atom_site_fract_z
 _atom_site_occupancy
  V  V0  1  0.00000000  0.00000000  0.00000000  1
  Cr  Cr1  1  0.00000000  0.00000000  0.06250000  1
  V  V2  1  0.00000000  0.00000000  0.12500000  1
  V  V3  1  0.00000000  0.00000000  0.18750000  1
  Cr  Cr4  1  0.00000000  0.00000000  0.25000000  1
  Cr  Cr5  1  0.00000000  0.00000000  0.31250000  1
  Cr  Cr6  1  0.00000000  0.00000000  0.37500000  1
  V  V7  1  0.00000000  0.00000000  0.43750000  1
  Cr  Cr8  1  0.00000000  0.00000000  0.50000000  1
  Cr  Cr9  1  0.00000000  0.00000000  0.56250000  1
  V  V10  1  0.00000000  0.00000000  0.62500000  1
  V  V11  1  0.00000000  0.00000000  0.68750000  1
  V  V12  1  0.00000000  0.00000000  0.75000000  1
  V  V13  1  0.00000000  0.00000000  0.81250000  1
  V  V14  1  0.00000000  0.00000000  0.87500000  1
  V  V15  1  0.00000000  0.00000000  0.93750000  1
  V  V16  1  0.00000000  0.06250000  0.00000000  1
  V  V17  1  0.00000000  0.06250000  0.06250000  1
  V  V18  1  0.00000000  0.06250000  0.12500000  1
  Cr  Cr19  1  0.00000000  0.06250000  0.18750000  1
  Cr  Cr20  1  0.00000000  0.06250000  0.25000000  1
  V  V21  1  0.00000000  0.06250000  0.31250000  1
  V  V22  1  0.00000000  0.06250000  0.37500000  1
  Cr  Cr23  1  0.00000000  0.06250000  0.43750000  1
  Cr  Cr24  1  0.00000000  0.06250000  0.50000000  1
  V  V25  1  0.00000000  0.06250000  0.56250000  1
  V  V26  1  0.00000000  0.06250000  0.62500000  1
  V  V27  1  0.00000000  0.06250000  0.68750000  1
  V  V28  1  0.00000000  0.06250000  0.75000000  1
  V  V29  1  0.00000000  0.06250000  0.81250000  1
  V  V30  1  0.00000000  0.06250000  0.87500000  1
  Cr  Cr31  1  0.00000000  0.06250000  0.93750000  1
  V  V32  1  0.00000000  0.12500000  0.00000000  1
  V  V33  1  0.00000000  0.12500000  0.06250000  1
  Cr  Cr34  1  0.00000000  0.12500000  0.12500000  1
  Cr  Cr35  1  0.00000000  0.12500000  0.18750000  1
  V  V36  1  0.00000000  0.12500000  0.25000000  1
  Cr  Cr37  1  0.00000000  0.12500000  0.31250000  1
  Cr  Cr38  1  0.00000000  0.12500000  0.37500000  1
  Cr  Cr39  1  0.00000000  0.12500000  0.43750000  1
  V  V40  1  0.00000000  0.12500000  0.50000000  1
  Cr  Cr41  1  0.00000000  0.12500000  0.56250000  1
  V  V42  1  0.00000000  0.12500000  0.62500000  1
  V  V43  1  0.00000000  0.12500000  0.68750000  1
  V  V44  1  0.00000000  0.12500000  0.75000000  1
  V  V45  1  0.00000000  0.12500000  0.81250000  1
  V  V46  1  0.00000000  0.12500000  0.87500000  1
  V  V47  1  0.00000000  0.12500000  0.93750000  1
  V  V48  1  0.00000000  0.18750000  0.00000000  1
  V  V49  1  0.00000000  0.18750000  0.06250000  1
  Cr  Cr50  1  0.00000000  0.18750000  0.12500000  1
  Cr  Cr51  1  0.00000000  0.18750000  0.18750000  1
  V  V52  1  0.00000000  0.18750000  0.25000000  1
  Cr  Cr53  1  0.00000000  0.18750000  0.31250000  1
  Cr  Cr54  1  0.00000000  0.18750000  0.37500000  1
  V  V55  1  0.00000000  0.18750000  0.43750000  1
  Cr  Cr56  1  0.00000000  0.18750000  0.50000000  1
  V  V57  1  0.00000000  0.18750000  0.56250000  1
  Ti  Ti58  1  0.00000000  0.18750000  0.62500000  1
  V  V59  1  0.00000000  0.18750000  0.68750000  1
  Cr  Cr60  1  0.00000000  0.18750000  0.75000000  1
  V  V61  1  0.00000000  0.18750000  0.81250000  1
  Cr  Cr62  1  0.00000000  0.18750000  0.87500000  1
  V  V63  1  0.00000000  0.18750000  0.93750000  1
  V  V64  1  0.00000000  0.25000000  0.00000000  1
  Cr  Cr65  1  0.00000000  0.25000000  0.06250000  1
  Cr  Cr66  1  0.00000000  0.25000000  0.12500000  1
  V  V67  1  0.00000000  0.25000000  0.18750000  1
  Cr  Cr68  1  0.00000000  0.25000000  0.25000000  1
  Cr  Cr69  1  0.00000000  0.25000000  0.31250000  1
  V  V70  1  0.00000000  0.25000000  0.37500000  1
  Cr  Cr71  1  0.00000000  0.25000000  0.43750000  1
  V  V72  1  0.00000000  0.25000000  0.50000000  1
  Ti  Ti73  1  0.00000000  0.25000000  0.56250000  1
  V  V74  1  0.00000000  0.25000000  0.62500000  1
  Ti  Ti75  1  0.00000000  0.25000000  0.68750000  1
  V  V76  1  0.00000000  0.25000000  0.75000000  1
  Ti  Ti77  1  0.00000000  0.25000000  0.81250000  1
  V  V78  1  0.00000000  0.25000000  0.87500000  1
  Ti  Ti79  1  0.00000000  0.25000000  0.93750000  1
  Ti  Ti80  1  0.00000000  0.31250000  0.00000000  1
  V  V81  1  0.00000000  0.31250000  0.06250000  1
  Cr  Cr82  1  0.00000000  0.31250000  0.12500000  1
  Cr  Cr83  1  0.00000000  0.31250000  0.18750000  1
  Cr  Cr84  1  0.00000000  0.31250000  0.25000000  1
  V  V85  1  0.00000000  0.31250000  0.31250000  1
  V  V86  1  0.00000000  0.31250000  0.37500000  1
  V  V87  1  0.00000000  0.31250000  0.43750000  1
  Ti  Ti88  1  0.00000000  0.31250000  0.50000000  1
  V  V89  1  0.00000000  0.31250000  0.56250000  1
  Ti  Ti90  1  0.00000000  0.31250000  0.62500000  1
  V  V91  1  0.00000000  0.31250000  0.68750000  1
  Ti  Ti92  1  0.00000000  0.31250000  0.75000000  1
  V  V93  1  0.00000000  0.31250000  0.81250000  1
  Ti  Ti94  1  0.00000000  0.31250000  0.87500000  1
  V  V95  1  0.00000000  0.31250000  0.93750000  1
  V  V96  1  0.00000000  0.37500000  0.00000000  1
  Ti  Ti97  1  0.00000000  0.37500000  0.06250000  1
  V  V98  1  0.00000000  0.37500000  0.12500000  1
  Cr  Cr99  1  0.00000000  0.37500000  0.18750000  1
  Cr  Cr100  1  0.00000000  0.37500000  0.25000000  1
  V  V101  1  0.00000000  0.37500000  0.31250000  1
  Cr  Cr102  1  0.00000000  0.37500000  0.37500000  1
  Cr  Cr103  1  0.00000000  0.37500000  0.43750000  1
  V  V104  1  0.00000000  0.37500000  0.50000000  1
  Ti  Ti105  1  0.00000000  0.37500000  0.56250000  1
  V  V106  1  0.00000000  0.37500000  0.62500000  1
  Ti  Ti107  1  0.00000000  0.37500000  0.68750000  1
  V  V108  1  0.00000000  0.37500000  0.75000000  1
  Ti  Ti109  1  0.00000000  0.37500000  0.81250000  1
  V  V110  1  0.00000000  0.37500000  0.87500000  1
  Ti  Ti111  1  0.00000000  0.37500000  0.93750000  1
  Ti  Ti112  1  0.00000000  0.43750000  0.00000000  1
  V  V113  1  0.00000000  0.43750000  0.06250000  1
  Ti  Ti114  1  0.00000000  0.43750000  0.12500000  1
  V  V115  1  0.00000000  0.43750000  0.18750000  1
  V  V116  1  0.00000000  0.43750000  0.25000000  1
  V  V117  1  0.00000000  0.43750000  0.31250000  1
  Cr  Cr118  1  0.00000000  0.43750000  0.37500000  1
  Cr  Cr119  1  0.00000000  0.43750000  0.43750000  1
  Cr  Cr120  1  0.00000000  0.43750000  0.50000000  1
  V  V121  1  0.00000000  0.43750000  0.56250000  1
  Ti  Ti122  1  0.00000000  0.43750000  0.62500000  1
  V  V123  1  0.00000000  0.43750000  0.68750000  1
  Ti  Ti124  1  0.00000000  0.43750000  0.75000000  1
  V  V125  1  0.00000000  0.43750000  0.81250000  1
  Ti  Ti126  1  0.00000000  0.43750000  0.87500000  1
  V  V127  1  0.00000000  0.43750000  0.93750000  1
  V  V128  1  0.00000000  0.50000000  0.00000000  1
  Ti  Ti129  1  0.00000000  0.50000000  0.06250000  1
  V  V130  1  0.00000000  0.50000000  0.12500000  1
  Cr  Cr131  1  0.00000000  0.50000000  0.18750000  1
  Cr  Cr132  1  0.00000000  0.50000000  0.25000000  1
  Cr  Cr133  1  0.00000000  0.50000000  0.31250000  1
  Cr  Cr134  1  0.00000000  0.50000000  0.37500000  1
  Cr  Cr135  1  0.00000000  0.50000000  0.43750000  1
  V  V136  1  0.00000000  0.50000000  0.50000000  1
  Ti  Ti137  1  0.00000000  0.50000000  0.56250000  1
  V  V138  1  0.00000000  0.50000000  0.62500000  1
  Ti  Ti139  1  0.00000000  0.50000000  0.68750000  1
  V  V140  1  0.00000000  0.50000000  0.75000000  1
  Ti  Ti141  1  0.00000000  0.50000000  0.81250000  1
  V  V142  1  0.00000000  0.50000000  0.87500000  1
  Ti  Ti143  1  0.00000000  0.50000000  0.93750000  1
  Ti  Ti144  1  0.00000000  0.56250000  0.00000000  1
  V  V145  1  0.00000000  0.56250000  0.06250000  1
  Cr  Cr146  1  0.00000000  0.56250000  0.12500000  1
  V  V147  1  0.00000000  0.56250000  0.18750000  1
  V  V148  1  0.00000000  0.56250000  0.25000000  1
  Cr  Cr149  1  0.00000000  0.56250000  0.31250000  1
  Cr  Cr150  1  0.00000000  0.56250000  0.37500000  1
  Cr  Cr151  1  0.00000000  0.56250000  0.43750000  1
  Cr  Cr152  1  0.00000000  0.56250000  0.50000000  1
  V  V153  1  0.00000000  0.56250000  0.56250000  1
  Ti  Ti154  1  0.00000000  0.56250000  0.62500000  1
  V  V155  1  0.00000000  0.56250000  0.68750000  1
  Ti  Ti156  1  0.00000000  0.56250000  0.75000000  1
  V  V157  1  0.00000000  0.56250000  0.81250000  1
  Ti  Ti158  1  0.00000000  0.56250000  0.87500000  1
  V  V159  1  0.00000000  0.56250000  0.93750000  1
  V  V160  1  0.00000000  0.62500000  0.00000000  1
  Cr  Cr161  1  0.00000000  0.62500000  0.06250000  1
  Cr  Cr162  1  0.00000000  0.62500000  0.12500000  1
  V  V163  1  0.00000000  0.62500000  0.18750000  1
  Cr  Cr164  1  0.00000000  0.62500000  0.25000000  1
  Cr  Cr165  1  0.00000000  0.62500000  0.31250000  1
  Cr  Cr166  1  0.00000000  0.62500000  0.37500000  1
  V  V167  1  0.00000000  0.62500000  0.43750000  1
  V  V168  1  0.00000000  0.62500000  0.50000000  1
  Ti  Ti169  1  0.00000000  0.62500000  0.56250000  1
  V  V170  1  0.00000000  0.62500000  0.62500000  1
  Ti  Ti171  1  0.00000000  0.62500000  0.68750000  1
  V  V172  1  0.00000000  0.62500000  0.75000000  1
  Ti  Ti173  1  0.00000000  0.62500000  0.81250000  1
  V  V174  1  0.00000000  0.62500000  0.87500000  1
  Ti  Ti175  1  0.00000000  0.62500000  0.93750000  1
  Cr  Cr176  1  0.00000000  0.68750000  0.00000000  1
  Cr  Cr177  1  0.00000000  0.68750000  0.06250000  1
  Cr  Cr178  1  0.00000000  0.68750000  0.12500000  1
  Cr  Cr179  1  0.00000000  0.68750000  0.18750000  1
  V  V180  1  0.00000000  0.68750000  0.25000000  1
  Cr  Cr181  1  0.00000000  0.68750000  0.31250000  1
  Cr  Cr182  1  0.00000000  0.68750000  0.37500000  1
  V  V183  1  0.00000000  0.68750000  0.43750000  1
  V  V184  1  0.00000000  0.68750000  0.50000000  1
  V  V185  1  0.00000000  0.68750000  0.56250000  1
  Cr  Cr186  1  0.00000000  0.68750000  0.62500000  1
  V  V187  1  0.00000000  0.68750000  0.68750000  1
  Ti  Ti188  1  0.00000000  0.68750000  0.75000000  1
  V  V189  1  0.00000000  0.68750000  0.81250000  1
  Ti  Ti190  1  0.00000000  0.68750000  0.87500000  1
  V  V191  1  0.00000000  0.68750000  0.93750000  1
  V  V192  1  0.00000000  0.75000000  0.00000000  1
  Cr  Cr193  1  0.00000000  0.75000000  0.06250000  1
  V  V194  1  0.00000000  0.75000000  0.12500000  1
  Cr  Cr195  1  0.00000000  0.75000000  0.18750000  1
  V  V196  1  0.00000000  0.75000000  0.25000000  1
  V  V197  1  0.00000000  0.75000000  0.31250000  1
  V  V198  1  0.00000000  0.75000000  0.37500000  1
  V  V199  1  0.00000000  0.75000000  0.43750000  1
  Cr  Cr200  1  0.00000000  0.75000000  0.50000000  1
  V  V201  1  0.00000000  0.75000000  0.56250000  1
  V  V202  1  0.00000000  0.75000000  0.62500000  1
  Ti  Ti203  1  0.00000000  0.75000000  0.68750000  1
  V  V204  1  0.00000000  0.75000000  0.75000000  1
  Ti  Ti205  1  0.00000000  0.75000000  0.81250000  1
  V  V206  1  0.00000000  0.75000000  0.87500000  1
  V  V207  1  0.00000000  0.75000000  0.93750000  1
  V  V208  1  0.00000000  0.81250000  0.00000000  1
  V  V209  1  0.00000000  0.81250000  0.06250000  1
  V  V210  1  0.00000000  0.81250000  0.12500000  1
  Cr  Cr211  1  0.00000000  0.81250000  0.18750000  1
  Cr  Cr212  1  0.00000000  0.81250000  0.25000000  1
  V  V213  1  0.00000000  0.81250000  0.31250000  1
  Cr  Cr214  1  0.00000000  0.81250000  0.37500000  1
  V  V215  1  0.00000000  0.81250000  0.43750000  1
  Cr  Cr216  1  0.00000000  0.81250000  0.50000000  1
  V  V217  1  0.00000000  0.81250000  0.56250000  1
  V  V218  1  0.00000000  0.81250000  0.62500000  1
  V  V219  1  0.00000000  0.81250000  0.68750000  1
  Cr  Cr220  1  0.00000000  0.81250000  0.75000000  1
  V  V221  1  0.00000000  0.81250000  0.81250000  1
  V  V222  1  0.00000000  0.81250000  0.87500000  1
  V  V223  1  0.00000000  0.81250000  0.93750000  1
  V  V224  1  0.00000000  0.87500000  0.00000000  1
  V  V225  1  0.00000000  0.87500000  0.06250000  1
  V  V226  1  0.00000000  0.87500000  0.12500000  1
  Cr  Cr227  1  0.00000000  0.87500000  0.18750000  1
  Cr  Cr228  1  0.00000000  0.87500000  0.25000000  1
  V  V229  1  0.00000000  0.87500000  0.31250000  1
  Cr  Cr230  1  0.00000000  0.87500000  0.37500000  1
  Cr  Cr231  1  0.00000000  0.87500000  0.43750000  1
  V  V232  1  0.00000000  0.87500000  0.50000000  1
  V  V233  1  0.00000000  0.87500000  0.56250000  1
  V  V234  1  0.00000000  0.87500000  0.62500000  1
  V  V235  1  0.00000000  0.87500000  0.68750000  1
  V  V236  1  0.00000000  0.87500000  0.75000000  1
  V  V237  1  0.00000000  0.87500000  0.81250000  1
  V  V238  1  0.00000000  0.87500000  0.87500000  1
  V  V239  1  0.00000000  0.87500000  0.93750000  1
  V  V240  1  0.00000000  0.93750000  0.00000000  1
  V  V241  1  0.00000000  0.93750000  0.06250000  1
  V  V242  1  0.00000000  0.93750000  0.12500000  1
  Cr  Cr243  1  0.00000000  0.93750000  0.18750000  1
  V  V244  1  0.00000000  0.93750000  0.25000000  1
  Cr  Cr245  1  0.00000000  0.93750000  0.31250000  1
  Cr  Cr246  1  0.00000000  0.93750000  0.37500000  1
  V  V247  1  0.00000000  0.93750000  0.43750000  1
  V  V248  1  0.00000000  0.93750000  0.50000000  1
  Cr  Cr249  1  0.00000000  0.93750000  0.56250000  1
  V  V250  1  0.00000000  0.93750000  0.62500000  1
  V  V251  1  0.00000000  0.93750000  0.68750000  1
  V  V252  1  0.00000000  0.93750000  0.75000000  1
  V  V253  1  0.00000000  0.93750000  0.81250000  1
  V  V254  1  0.00000000  0.93750000  0.87500000  1
  V  V255  1  0.00000000  0.93750000  0.93750000  1
  V  V256  1  0.06250000  0.00000000  0.00000000  1
  V  V257  1  0.06250000  0.00000000  0.06250000  1
  V  V258  1  0.06250000  0.00000000  0.12500000  1
  Cr  Cr259  1  0.06250000  0.00000000  0.18750000  1
  Cr  Cr260  1  0.06250000  0.00000000  0.25000000  1
  V  V261  1  0.06250000  0.00000000  0.31250000  1
  V  V262  1  0.06250000  0.00000000  0.37500000  1
  Cr  Cr263  1  0.06250000  0.00000000  0.43750000  1
  Cr  Cr264  1  0.06250000  0.00000000  0.50000000  1
  Cr  Cr265  1  0.06250000  0.00000000  0.56250000  1
  V  V266  1  0.06250000  0.00000000  0.62500000  1
  V  V267  1  0.06250000  0.00000000  0.68750000  1
  V  V268  1  0.06250000  0.00000000  0.75000000  1
  V  V269  1  0.06250000  0.00000000  0.81250000  1
  V  V270  1  0.06250000  0.00000000  0.87500000  1
  V  V271  1  0.06250000  0.00000000  0.93750000  1
  V  V272  1  0.06250000  0.06250000  0.00000000  1
  V  V273  1  0.06250000  0.06250000  0.06250000  1
  Cr  Cr274  1  0.06250000  0.06250000  0.12500000  1
  Cr  Cr275  1  0.06250000  0.06250000  0.18750000  1
  V  V276  1  0.06250000  0.06250000  0.25000000  1
  Cr  Cr277  1  0.06250000  0.06250000  0.31250000  1
  Cr  Cr278  1  0.06250000  0.06250000  0.37500000  1
  Cr  Cr279  1  0.06250000  0.06250000  0.43750000  1
  Cr  Cr280  1  0.06250000  0.06250000  0.50000000  1
  V  V281  1  0.06250000  0.06250000  0.56250000  1
  Cr  Cr282  1  0.06250000  0.06250000  0.62500000  1
  Cr  Cr283  1  0.06250000  0.06250000  0.68750000  1
  V  V284  1  0.06250000  0.06250000  0.75000000  1
  V  V285  1  0.06250000  0.06250000  0.81250000  1
  V  V286  1  0.06250000  0.06250000  0.87500000  1
  V  V287  1  0.06250000  0.06250000  0.93750000  1
  V  V288  1  0.06250000  0.12500000  0.00000000  1
  V  V289  1  0.06250000  0.12500000  0.06250000  1
  V  V290  1  0.06250000  0.12500000  0.12500000  1
  V  V291  1  0.06250000  0.12500000  0.18750000  1
  Cr  Cr292  1  0.06250000  0.12500000  0.25000000  1
  Cr  Cr293  1  0.06250000  0.12500000  0.31250000  1
  Cr  Cr294  1  0.06250000  0.12500000  0.37500000  1
  Cr  Cr295  1  0.06250000  0.12500000  0.43750000  1
  V  V296  1  0.06250000  0.12500000  0.50000000  1
  V  V297  1  0.06250000  0.12500000  0.56250000  1
  Cr  Cr298  1  0.06250000  0.12500000  0.62500000  1
  V  V299  1  0.06250000  0.12500000  0.68750000  1
  V  V300  1  0.06250000  0.12500000  0.75000000  1
  V  V301  1  0.06250000  0.12500000  0.81250000  1
  V  V302  1  0.06250000  0.12500000  0.87500000  1
  V  V303  1  0.06250000  0.12500000  0.93750000  1
  V  V304  1  0.06250000  0.18750000  0.00000000  1
  Cr  Cr305  1  0.06250000  0.18750000  0.06250000  1
  Cr  Cr306  1  0.06250000  0.18750000  0.12500000  1
  V  V307  1  0.06250000  0.18750000  0.18750000  1
  Cr  Cr308  1  0.06250000  0.18750000  0.25000000  1
  Cr  Cr309  1  0.06250000  0.18750000  0.31250000  1
  V  V310  1  0.06250000  0.18750000  0.37500000  1
  V  V311  1  0.06250000  0.18750000  0.43750000  1
  Cr  Cr312  1  0.06250000  0.18750000  0.50000000  1
  Cr  Cr313  1  0.06250000  0.18750000  0.56250000  1
  V  V314  1  0.06250000  0.18750000  0.62500000  1
  Cr  Cr315  1  0.06250000  0.18750000  0.68750000  1
  V  V316  1  0.06250000  0.18750000  0.75000000  1
  Cr  Cr317  1  0.06250000  0.18750000  0.81250000  1
  V  V318  1  0.06250000  0.18750000  0.87500000  1
  Cr  Cr319  1  0.06250000  0.18750000  0.93750000  1
  Ti  Ti320  1  0.06250000  0.25000000  0.00000000  1
  V  V321  1  0.06250000  0.25000000  0.06250000  1
  V  V322  1  0.06250000  0.25000000  0.12500000  1
  Cr  Cr323  1  0.06250000  0.25000000  0.18750000  1
  Cr  Cr324  1  0.06250000  0.25000000  0.25000000  1
  Cr  Cr325  1  0.06250000  0.25000000  0.31250000  1
  V  V326  1  0.06250000  0.25000000  0.37500000  1
  Cr  Cr327  1  0.06250000  0.25000000  0.43750000  1
  Cr  Cr328  1  0.06250000  0.25000000  0.50000000  1
  V  V329  1  0.06250000  0.25000000  0.56250000  1
  Ti  Ti330  1  0.06250000  0.25000000  0.62500000  1
  V  V331  1  0.06250000  0.25000000  0.68750000  1
  Ti  Ti332  1  0.06250000  0.25000000  0.75000000  1
  V  V333  1  0.06250000  0.25000000  0.81250000  1
  Ti  Ti334  1  0.06250000  0.25000000  0.87500000  1
  V  V335  1  0.06250000  0.25000000  0.93750000  1
  V  V336  1  0.06250000  0.31250000  0.00000000  1
  Ti  Ti337  1  0.06250000  0.31250000  0.06250000  1
  V  V338  1  0.06250000  0.31250000  0.12500000  1
  Cr  Cr339  1  0.06250000  0.31250000  0.18750000  1
  Cr  Cr340  1  0.06250000  0.31250000  0.25000000  1
  V  V341  1  0.06250000  0.31250000  0.31250000  1
  Cr  Cr342  1  0.06250000  0.31250000  0.37500000  1
  Cr  Cr343  1  0.06250000  0.31250000  0.43750000  1
  V  V344  1  0.06250000  0.31250000  0.50000000  1
  Cr  Cr345  1  0.06250000  0.31250000  0.56250000  1
  V  V346  1  0.06250000  0.31250000  0.62500000  1
  Ti  Ti347  1  0.06250000  0.31250000  0.68750000  1
  V  V348  1  0.06250000  0.31250000  0.75000000  1
  Ti  Ti349  1  0.06250000  0.31250000  0.81250000  1
  V  V350  1  0.06250000  0.31250000  0.87500000  1
  Ti  Ti351  1  0.06250000  0.31250000  0.93750000  1
  Ti  Ti352  1  0.06250000  0.37500000  0.00000000  1
  V  V353  1  0.06250000  0.37500000  0.06250000  1
  Ti  Ti354  1  0.06250000  0.37500000  0.12500000  1
  V  V355  1  0.06250000  0.37500000  0.18750000  1
  V  V356  1  0.06250000  0.37500000  0.25000000  1
  Cr  Cr357  1  0.06250000  0.37500000  0.31250000  1
  Cr  Cr358  1  0.06250000  0.37500000  0.37500000  1
  Cr  Cr359  1  0.06250000  0.37500000  0.43750000  1
  Cr  Cr360  1  0.06250000  0.37500000  0.50000000  1
  V  V361  1  0.06250000  0.37500000  0.56250000  1
  Ti  Ti362  1  0.06250000  0.37500000  0.62500000  1
  V  V363  1  0.06250000  0.37500000  0.68750000  1
  Ti  Ti364  1  0.06250000  0.37500000  0.75000000  1
  V  V365  1  0.06250000  0.37500000  0.81250000  1
  Ti  Ti366  1  0.06250000  0.37500000  0.87500000  1
  V  V367  1  0.06250000  0.37500000  0.93750000  1
  V  V368  1  0.06250000  0.43750000  0.00000000  1
  Ti  Ti369  1  0.06250000  0.43750000  0.06250000  1
  V  V370  1  0.06250000  0.43750000  0.12500000  1
  Cr  Cr371  1  0.06250000  0.43750000  0.18750000  1
  Cr  Cr372  1  0.06250000  0.43750000  0.25000000  1
  Cr  Cr373  1  0.06250000  0.43750000  0.31250000  1
  V  V374  1  0.06250000  0.43750000  0.37500000  1
  Cr  Cr375  1  0.06250000  0.43750000  0.43750000  1
  V  V376  1  0.06250000  0.43750000  0.50000000  1
  Ti  Ti377  1  0.06250000  0.43750000  0.56250000  1
  V  V378  1  0.06250000  0.43750000  0.62500000  1
  Ti  Ti379  1  0.06250000  0.43750000  0.68750000  1
  V  V380  1  0.06250000  0.43750000  0.75000000  1
  Ti  Ti381  1  0.06250000  0.43750000  0.81250000  1
  V  V382  1  0.06250000  0.43750000  0.87500000  1
  Ti  Ti383  1  0.06250000  0.43750000  0.93750000  1
  Ti  Ti384  1  0.06250000  0.50000000  0.00000000  1
  V  V385  1  0.06250000  0.50000000  0.06250000  1
  Ti  Ti386  1  0.06250000  0.50000000  0.12500000  1
  V  V387  1  0.06250000  0.50000000  0.18750000  1
  Cr  Cr388  1  0.06250000  0.50000000  0.25000000  1
  V  V389  1  0.06250000  0.50000000  0.31250000  1
  Cr  Cr390  1  0.06250000  0.50000000  0.37500000  1
  V  V391  1  0.06250000  0.50000000  0.43750000  1
  Cr  Cr392  1  0.06250000  0.50000000  0.50000000  1
  V  V393  1  0.06250000  0.50000000  0.56250000  1
  Ti  Ti394  1  0.06250000  0.50000000  0.62500000  1
  V  V395  1  0.06250000  0.50000000  0.68750000  1
  Ti  Ti396  1  0.06250000  0.50000000  0.75000000  1
  V  V397  1  0.06250000  0.50000000  0.81250000  1
  Ti  Ti398  1  0.06250000  0.50000000  0.87500000  1
  V  V399  1  0.06250000  0.50000000  0.93750000  1
  V  V400  1  0.06250000  0.56250000  0.00000000  1
  Ti  Ti401  1  0.06250000  0.56250000  0.06250000  1
  V  V402  1  0.06250000  0.56250000  0.12500000  1
  Cr  Cr403  1  0.06250000  0.56250000  0.18750000  1
  V  V404  1  0.06250000  0.56250000  0.25000000  1
  V  V405  1  0.06250000  0.56250000  0.31250000  1
  V  V406  1  0.06250000  0.56250000  0.37500000  1
  V  V407  1  0.06250000  0.56250000  0.43750000  1
  V  V408  1  0.06250000  0.56250000  0.50000000  1
  Ti  Ti409  1  0.06250000  0.56250000  0.56250000  1
  V  V410  1  0.06250000  0.56250000  0.62500000  1
  Ti  Ti411  1  0.06250000  0.56250000  0.68750000  1
  V  V412  1  0.06250000  0.56250000  0.75000000  1
  Ti  Ti413  1  0.06250000  0.56250000  0.81250000  1
  V  V414  1  0.06250000  0.56250000  0.87500000  1
  Ti  Ti415  1  0.06250000  0.56250000  0.93750000  1
  Ti  Ti416  1  0.06250000  0.62500000  0.00000000  1
  V  V417  1  0.06250000  0.62500000  0.06250000  1
  Cr  Cr418  1  0.06250000  0.62500000  0.12500000  1
  V  V419  1  0.06250000  0.62500000  0.18750000  1
  Cr  Cr420  1  0.06250000  0.62500000  0.25000000  1
  Cr  Cr421  1  0.06250000  0.62500000  0.31250000  1
  V  V422  1  0.06250000  0.62500000  0.37500000  1
  Cr  Cr423  1  0.06250000  0.62500000  0.43750000  1
  Cr  Cr424  1  0.06250000  0.62500000  0.50000000  1
  V  V425  1  0.06250000  0.62500000  0.56250000  1
  Ti  Ti426  1  0.06250000  0.62500000  0.62500000  1
  V  V427  1  0.06250000  0.62500000  0.68750000  1
  Ti  Ti428  1  0.06250000  0.62500000  0.75000000  1
  V  V429  1  0.06250000  0.62500000  0.81250000  1
  Ti  Ti430  1  0.06250000  0.62500000  0.87500000  1
  V  V431  1  0.06250000  0.62500000  0.93750000  1
  V  V432  1  0.06250000  0.68750000  0.00000000  1
  Cr  Cr433  1  0.06250000  0.68750000  0.06250000  1
  V  V434  1  0.06250000  0.68750000  0.12500000  1
  V  V435  1  0.06250000  0.68750000  0.18750000  1
  Cr  Cr436  1  0.06250000  0.68750000  0.25000000  1
  V  V437  1  0.06250000  0.68750000  0.31250000  1
  V  V438  1  0.06250000  0.68750000  0.37500000  1
  Cr  Cr439  1  0.06250000  0.68750000  0.43750000  1
  Cr  Cr440  1  0.06250000  0.68750000  0.50000000  1
  Cr  Cr441  1  0.06250000  0.68750000  0.56250000  1
  V  V442  1  0.06250000  0.68750000  0.62500000  1
  Ti  Ti443  1  0.06250000  0.68750000  0.68750000  1
  V  V444  1  0.06250000  0.68750000  0.75000000  1
  Ti  Ti445  1  0.06250000  0.68750000  0.81250000  1
  V  V446  1  0.06250000  0.68750000  0.87500000  1
  Ti  Ti447  1  0.06250000  0.68750000  0.93750000  1
  Cr  Cr448  1  0.06250000  0.75000000  0.00000000  1
  V  V449  1  0.06250000  0.75000000  0.06250000  1
  Cr  Cr450  1  0.06250000  0.75000000  0.12500000  1
  Cr  Cr451  1  0.06250000  0.75000000  0.18750000  1
  Cr  Cr452  1  0.06250000  0.75000000  0.25000000  1
  Cr  Cr453  1  0.06250000  0.75000000  0.31250000  1
  V  V454  1  0.06250000  0.75000000  0.37500000  1
  Cr  Cr455  1  0.06250000  0.75000000  0.43750000  1
  Cr  Cr456  1  0.06250000  0.75000000  0.50000000  1
  Cr  Cr457  1  0.06250000  0.75000000  0.56250000  1
  V  V458  1  0.06250000  0.75000000  0.62500000  1
  V  V459  1  0.06250000  0.75000000  0.68750000  1
  Ti  Ti460  1  0.06250000  0.75000000  0.75000000  1
  V  V461  1  0.06250000  0.75000000  0.81250000  1
  Ti  Ti462  1  0.06250000  0.75000000  0.87500000  1
  V  V463  1  0.06250000  0.75000000  0.93750000  1
  V  V464  1  0.06250000  0.81250000  0.00000000  1
  Cr  Cr465  1  0.06250000  0.81250000  0.06250000  1
  V  V466  1  0.06250000  0.81250000  0.12500000  1
  Cr  Cr467  1  0.06250000  0.81250000  0.18750000  1
  V  V468  1  0.06250000  0.81250000  0.25000000  1
  Cr  Cr469  1  0.06250000  0.81250000  0.31250000  1
  Cr  Cr470  1  0.06250000  0.81250000  0.37500000  1
  Cr  Cr471  1  0.06250000  0.81250000  0.43750000  1
  Cr  Cr472  1  0.06250000  0.81250000  0.50000000  1
  V  V473  1  0.06250000  0.81250000  0.56250000  1
  V  V474  1  0.06250000  0.81250000  0.62500000  1
  Cr  Cr475  1  0.06250000  0.81250000  0.68750000  1
  V  V476  1  0.06250000  0.81250000  0.75000000  1
  Ti  Ti477  1  0.06250000  0.81250000  0.81250000  1
  V  V478  1  0.06250000  0.81250000  0.87500000  1
  V  V479  1  0.06250000  0.81250000  0.93750000  1
  V  V480  1  0.06250000  0.87500000  0.00000000  1
  V  V481  1  0.06250000  0.87500000  0.06250000  1
  Cr  Cr482  1  0.06250000  0.87500000  0.12500000  1
  Cr  Cr483  1  0.06250000  0.87500000  0.18750000  1
  V  V484  1  0.06250000  0.87500000  0.25000000  1
  Cr  Cr485  1  0.06250000  0.87500000  0.31250000  1
  Cr  Cr486  1  0.06250000  0.87500000  0.37500000  1
  V  V487  1  0.06250000  0.87500000  0.43750000  1
  V  V488  1  0.06250000  0.87500000  0.50000000  1
  Cr  Cr489  1  0.06250000  0.87500000  0.56250000  1
  V  V490  1  0.06250000  0.87500000  0.62500000  1
  V  V491  1  0.06250000  0.87500000  0.68750000  1
  V  V492  1  0.06250000  0.87500000  0.75000000  1
  V  V493  1  0.06250000  0.87500000  0.81250000  1
  V  V494  1  0.06250000  0.87500000  0.87500000  1
  V  V495  1  0.06250000  0.87500000  0.93750000  1
  V  V496  1  0.06250000  0.93750000  0.00000000  1
  V  V497  1  0.06250000  0.93750000  0.06250000  1
  V  V498  1  0.06250000  0.93750000  0.12500000  1
  V  V499  1  0.06250000  0.93750000  0.18750000  1
  V  V500  1  0.06250000  0.93750000  0.25000000  1
  Cr  Cr501  1  0.06250000  0.93750000  0.31250000  1
  Cr  Cr502  1  0.06250000  0.93750000  0.37500000  1
  V  V503  1  0.06250000  0.93750000  0.43750000  1
  Cr  Cr504  1  0.06250000  0.93750000  0.50000000  1
  V  V505  1  0.06250000  0.93750000  0.56250000  1
  V  V506  1  0.06250000  0.93750000  0.62500000  1
  Cr  Cr507  1  0.06250000  0.93750000  0.68750000  1
  V  V508  1  0.06250000  0.93750000  0.75000000  1
  V  V509  1  0.06250000  0.93750000  0.81250000  1
  V  V510  1  0.06250000  0.93750000  0.87500000  1
  V  V511  1  0.06250000  0.93750000  0.93750000  1
  V  V512  1  0.12500000  0.00000000  0.00000000  1
  V  V513  1  0.12500000  0.00000000  0.06250000  1
  Cr  Cr514  1  0.12500000  0.00000000  0.12500000  1
  Cr  Cr515  1  0.12500000  0.00000000  0.18750000  1
  V  V516  1  0.12500000  0.00000000  0.25000000  1
  Cr  Cr517  1  0.12500000  0.00000000  0.31250000  1
  Cr  Cr518  1  0.12500000  0.00000000  0.37500000  1
  Cr  Cr519  1  0.12500000  0.00000000  0.43750000  1
  Cr  Cr520  1  0.12500000  0.00000000  0.50000000  1
  V  V521  1  0.12500000  0.00000000  0.56250000  1
  Cr  Cr522  1  0.12500000  0.00000000  0.62500000  1
  Cr  Cr523  1  0.12500000  0.00000000  0.68750000  1
  V  V524  1  0.12500000  0.00000000  0.75000000  1
  V  V525  1  0.12500000  0.00000000  0.81250000  1
  Cr  Cr526  1  0.12500000  0.00000000  0.87500000  1
  Cr  Cr527  1  0.12500000  0.00000000  0.93750000  1
  Cr  Cr528  1  0.12500000  0.06250000  0.00000000  1
  V  V529  1  0.12500000  0.06250000  0.06250000  1
  Cr  Cr530  1  0.12500000  0.06250000  0.12500000  1
  V  V531  1  0.12500000  0.06250000  0.18750000  1
  Cr  Cr532  1  0.12500000  0.06250000  0.25000000  1
  Cr  Cr533  1  0.12500000  0.06250000  0.31250000  1
  Cr  Cr534  1  0.12500000  0.06250000  0.37500000  1
  V  V535  1  0.12500000  0.06250000  0.43750000  1
  V  V536  1  0.12500000  0.06250000  0.50000000  1
  Cr  Cr537  1  0.12500000  0.06250000  0.56250000  1
  Cr  Cr538  1  0.12500000  0.06250000  0.62500000  1
  Cr  Cr539  1  0.12500000  0.06250000  0.68750000  1
  V  V540  1  0.12500000  0.06250000  0.75000000  1
  Cr  Cr541  1  0.12500000  0.06250000  0.81250000  1
  V  V542  1  0.12500000  0.06250000  0.87500000  1
  V  V543  1  0.12500000  0.06250000  0.93750000  1
  Cr  Cr544  1  0.12500000  0.12500000  0.00000000  1
  Cr  Cr545  1  0.12500000  0.12500000  0.06250000  1
  V  V546  1  0.12500000  0.12500000  0.12500000  1
  Cr  Cr547  1  0.12500000  0.12500000  0.18750000  1
  Cr  Cr548  1  0.12500000  0.12500000  0.25000000  1
  Cr  Cr549  1  0.12500000  0.12500000  0.31250000  1
  V  V550  1  0.12500000  0.12500000  0.37500000  1
  V  V551  1  0.12500000  0.12500000  0.43750000  1
  Cr  Cr552  1  0.12500000  0.12500000  0.50000000  1
  Cr  Cr553  1  0.12500000  0.12500000  0.56250000  1
  Cr  Cr554  1  0.12500000  0.12500000  0.62500000  1
  V  V555  1  0.12500000  0.12500000  0.68750000  1
  V  V556  1  0.12500000  0.12500000  0.75000000  1
  V  V557  1  0.12500000  0.12500000  0.81250000  1
  Cr  Cr558  1  0.12500000  0.12500000  0.87500000  1
  V  V559  1  0.12500000  0.12500000  0.93750000  1
  Cr  Cr560  1  0.12500000  0.18750000  0.00000000  1
  Cr  Cr561  1  0.12500000  0.18750000  0.06250000  1
  V  V562  1  0.12500000  0.18750000  0.12500000  1
  Cr  Cr563  1  0.12500000  0.18750000  0.18750000  1
  Cr  Cr564  1  0.12500000  0.18750000  0.25000000  1
  V  V565  1  0.12500000  0.18750000  0.31250000  1
  V  V566  1  0.12500000  0.18750000  0.37500000  1
  Cr  Cr567  1  0.12500000  0.18750000  0.43750000  1
  Cr  Cr568  1  0.12500000  0.18750000  0.50000000  1
  Cr  Cr569  1  0.12500000  0.18750000  0.56250000  1
  Cr  Cr570  1  0.12500000  0.18750000  0.62500000  1
  V  V571  1  0.12500000  0.18750000  0.68750000  1
  Cr  Cr572  1  0.12500000  0.18750000  0.75000000  1
  V  V573  1  0.12500000  0.18750000  0.81250000  1
  V  V574  1  0.12500000  0.18750000  0.87500000  1
  Cr  Cr575  1  0.12500000  0.18750000  0.93750000  1
  V  V576  1  0.12500000  0.25000000  0.00000000  1
  Cr  Cr577  1  0.12500000  0.25000000  0.06250000  1
  V  V578  1  0.12500000  0.25000000  0.12500000  1
  Cr  Cr579  1  0.12500000  0.25000000  0.18750000  1
  Cr  Cr580  1  0.12500000  0.25000000  0.25000000  1
  V  V581  1  0.12500000  0.25000000  0.31250000  1
  Cr  Cr582  1  0.12500000  0.25000000  0.37500000  1
  Cr  Cr583  1  0.12500000  0.25000000  0.43750000  1
  V  V584  1  0.12500000  0.25000000  0.50000000  1
  V  V585  1  0.12500000  0.25000000  0.56250000  1
  V  V586  1  0.12500000  0.25000000  0.62500000  1
  Ti  Ti587  1  0.12500000  0.25000000  0.68750000  1
  V  V588  1  0.12500000  0.25000000  0.75000000  1
  Cr  Cr589  1  0.12500000  0.25000000  0.81250000  1
  V  V590  1  0.12500000  0.25000000  0.87500000  1
  Cr  Cr591  1  0.12500000  0.25000000  0.93750000  1
  Ti  Ti592  1  0.12500000  0.31250000  0.00000000  1
  V  V593  1  0.12500000  0.31250000  0.06250000  1
  Cr  Cr594  1  0.12500000  0.31250000  0.12500000  1
  V  V595  1  0.12500000  0.31250000  0.18750000  1
  V  V596  1  0.12500000  0.31250000  0.25000000  1
  Cr  Cr597  1  0.12500000  0.31250000  0.31250000  1
  Cr  Cr598  1  0.12500000  0.31250000  0.37500000  1
  Cr  Cr599  1  0.12500000  0.31250000  0.43750000  1
  V  V600  1  0.12500000  0.31250000  0.50000000  1
  Cr  Cr601  1  0.12500000  0.31250000  0.56250000  1
  Cr  Cr602  1  0.12500000  0.31250000  0.62500000  1
  V  V603  1  0.12500000  0.31250000  0.68750000  1
  Ti  Ti604  1  0.12500000  0.31250000  0.75000000  1
  V  V605  1  0.12500000  0.31250000  0.81250000  1
  Ti  Ti606  1  0.12500000  0.31250000  0.87500000  1
  V  V607  1  0.12500000  0.31250000  0.93750000  1
  V  V608  1  0.12500000  0.37500000  0.00000000  1
  Ti  Ti609  1  0.12500000  0.37500000  0.06250000  1
  V  V610  1  0.12500000  0.37500000  0.12500000  1
  Cr  Cr611  1  0.12500000  0.37500000  0.18750000  1
  V  V612  1  0.12500000  0.37500000  0.25000000  1
  Cr  Cr613  1  0.12500000  0.37500000  0.31250000  1
  V  V614  1  0.12500000  0.37500000  0.37500000  1
  V  V615  1  0.12500000  0.37500000  0.43750000  1
  V  V616  1  0.12500000  0.37500000  0.50000000  1
  Cr  Cr617  1  0.12500000  0.37500000  0.56250000  1
  V  V618  1  0.12500000  0.37500000  0.62500000  1
  Ti  Ti619  1  0.12500000  0.37500000  0.68750000  1
  V  V620  1  0.12500000  0.37500000  0.75000000  1
  Ti  Ti621  1  0.12500000  0.37500000  0.81250000  1
  V  V622  1  0.12500000  0.37500000  0.87500000  1
  Ti  Ti623  1  0.12500000  0.37500000  0.93750000  1
  Ti  Ti624  1  0.12500000  0.43750000  0.00000000  1
  V  V625  1  0.12500000  0.43750000  0.06250000  1
  Ti  Ti626  1  0.12500000  0.43750000  0.12500000  1
  V  V627  1  0.12500000  0.43750000  0.18750000  1
  Cr  Cr628  1  0.12500000  0.43750000  0.25000000  1
  V  V629  1  0.12500000  0.43750000  0.31250000  1
  Cr  Cr630  1  0.12500000  0.43750000  0.37500000  1
  V  V631  1  0.12500000  0.43750000  0.43750000  1
  Cr  Cr632  1  0.12500000  0.43750000  0.50000000  1
  V  V633  1  0.12500000  0.43750000  0.56250000  1
  Ti  Ti634  1  0.12500000  0.43750000  0.62500000  1
  V  V635  1  0.12500000  0.43750000  0.68750000  1
  Ti  Ti636  1  0.12500000  0.43750000  0.75000000  1
  V  V637  1  0.12500000  0.43750000  0.81250000  1
  Ti  Ti638  1  0.12500000  0.43750000  0.87500000  1
  V  V639  1  0.12500000  0.43750000  0.93750000  1
  V  V640  1  0.12500000  0.50000000  0.00000000  1
  Ti  Ti641  1  0.12500000  0.50000000  0.06250000  1
  V  V642  1  0.12500000  0.50000000  0.12500000  1
  Ti  Ti643  1  0.12500000  0.50000000  0.18750000  1
  V  V644  1  0.12500000  0.50000000  0.25000000  1
  V  V645  1  0.12500000  0.50000000  0.31250000  1
  Cr  Cr646  1  0.12500000  0.50000000  0.37500000  1
  Cr  Cr647  1  0.12500000  0.50000000  0.43750000  1
  Cr  Cr648  1  0.12500000  0.50000000  0.50000000  1
  Cr  Cr649  1  0.12500000  0.50000000  0.56250000  1
  V  V650  1  0.12500000  0.50000000  0.62500000  1
  Ti  Ti651  1  0.12500000  0.50000000  0.68750000  1
  V  V652  1  0.12500000  0.50000000  0.75000000  1
  Ti  Ti653  1  0.12500000  0.50000000  0.81250000  1
  V  V654  1  0.12500000  0.50000000  0.87500000  1
  Ti  Ti655  1  0.12500000  0.50000000  0.93750000  1
  Ti  Ti656  1  0.12500000  0.56250000  0.00000000  1
  V  V657  1  0.12500000  0.56250000  0.06250000  1
  Ti  Ti658  1  0.12500000  0.56250000  0.12500000  1
  V  V659  1  0.12500000  0.56250000  0.18750000  1
  Cr  Cr660  1  0.12500000  0.56250000  0.25000000  1
  Cr  Cr661  1  0.12500000  0.56250000  0.31250000  1
  Cr  Cr662  1  0.12500000  0.56250000  0.37500000  1
  V  V663  1  0.12500000  0.56250000  0.43750000  1
  Cr  Cr664  1  0.12500000  0.56250000  0.50000000  1
  V  V665  1  0.12500000  0.56250000  0.56250000  1
  Ti  Ti666  1  0.12500000  0.56250000  0.62500000  1
  V  V667  1  0.12500000  0.56250000  0.68750000  1
  Ti  Ti668  1  0.12500000  0.56250000  0.75000000  1
  V  V669  1  0.12500000  0.56250000  0.81250000  1
  Ti  Ti670  1  0.12500000  0.56250000  0.87500000  1
  V  V671  1  0.12500000  0.56250000  0.93750000  1
  V  V672  1  0.12500000  0.62500000  0.00000000  1
  Ti  Ti673  1  0.12500000  0.62500000  0.06250000  1
  V  V674  1  0.12500000  0.62500000  0.12500000  1
  Cr  Cr675  1  0.12500000  0.62500000  0.18750000  1
  V  V676  1  0.12500000  0.62500000  0.25000000  1
  Cr  Cr677  1  0.12500000  0.62500000  0.31250000  1
  V  V678  1  0.12500000  0.62500000  0.37500000  1
  Cr  Cr679  1  0.12500000  0.62500000  0.43750000  1
  Cr  Cr680  1  0.12500000  0.62500000  0.50000000  1
  Cr  Cr681  1  0.12500000  0.62500000  0.56250000  1
  V  V682  1  0.12500000  0.62500000  0.62500000  1
  Ti  Ti683  1  0.12500000  0.62500000  0.68750000  1
  V  V684  1  0.12500000  0.62500000  0.75000000  1
  Ti  Ti685  1  0.12500000  0.62500000  0.81250000  1
  V  V686  1  0.12500000  0.62500000  0.87500000  1
  Ti  Ti687  1  0.12500000  0.62500000  0.93750000  1
  Ti  Ti688  1  0.12500000  0.68750000  0.00000000  1
  V  V689  1  0.12500000  0.68750000  0.06250000  1
  Cr  Cr690  1  0.12500000  0.68750000  0.12500000  1
  Cr  Cr691  1  0.12500000  0.68750000  0.18750000  1
  V  V692  1  0.12500000  0.68750000  0.25000000  1
  V  V693  1  0.12500000  0.68750000  0.31250000  1
  Cr  Cr694  1  0.12500000  0.68750000  0.37500000  1
  Cr  Cr695  1  0.12500000  0.68750000  0.43750000  1
  V  V696  1  0.12500000  0.68750000  0.50000000  1
  V  V697  1  0.12500000  0.68750000  0.56250000  1
  Cr  Cr698  1  0.12500000  0.68750000  0.62500000  1
  V  V699  1  0.12500000  0.68750000  0.68750000  1
  Ti  Ti700  1  0.12500000  0.68750000  0.75000000  1
  V  V701  1  0.12500000  0.68750000  0.81250000  1
  Ti  Ti702  1  0.12500000  0.68750000  0.87500000  1
  V  V703  1  0.12500000  0.68750000  0.93750000  1
  V  V704  1  0.12500000  0.75000000  0.00000000  1
  Ti  Ti705  1  0.12500000  0.75000000  0.06250000  1
  V  V706  1  0.12500000  0.75000000  0.12500000  1
  Cr  Cr707  1  0.12500000  0.75000000  0.18750000  1
  V  V708  1  0.12500000  0.75000000  0.25000000  1
  Cr  Cr709  1  0.12500000  0.75000000  0.31250000  1
  Cr  Cr710  1  0.12500000  0.75000000  0.37500000  1
  Cr  Cr711  1  0.12500000  0.75000000  0.43750000  1
  V  V712  1  0.12500000  0.75000000  0.50000000  1
  V  V713  1  0.12500000  0.75000000  0.56250000  1
  V  V714  1  0.12500000  0.75000000  0.62500000  1
  Ti  Ti715  1  0.12500000  0.75000000  0.68750000  1
  V  V716  1  0.12500000  0.75000000  0.75000000  1
  Ti  Ti717  1  0.12500000  0.75000000  0.81250000  1
  V  V718  1  0.12500000  0.75000000  0.87500000  1
  Ti  Ti719  1  0.12500000  0.75000000  0.93750000  1
  Ti  Ti720  1  0.12500000  0.81250000  0.00000000  1
  V  V721  1  0.12500000  0.81250000  0.06250000  1
  Cr  Cr722  1  0.12500000  0.81250000  0.12500000  1
  V  V723  1  0.12500000  0.81250000  0.18750000  1
  Cr  Cr724  1  0.12500000  0.81250000  0.25000000  1
  V  V725  1  0.12500000  0.81250000  0.31250000  1
  V  V726  1  0.12500000  0.81250000  0.37500000  1
  V  V727  1  0.12500000  0.81250000  0.43750000  1
  V  V728  1  0.12500000  0.81250000  0.50000000  1
  V  V729  1  0.12500000  0.81250000  0.56250000  1
  Cr  Cr730  1  0.12500000  0.81250000  0.62500000  1
  V  V731  1  0.12500000  0.81250000  0.68750000  1
  Ti  Ti732  1  0.12500000  0.81250000  0.75000000  1
  V  V733  1  0.12500000  0.81250000  0.81250000  1
  Ti  Ti734  1  0.12500000  0.81250000  0.87500000  1
  V  V735  1  0.12500000  0.81250000  0.93750000  1
  V  V736  1  0.12500000  0.87500000  0.00000000  1
  Cr  Cr737  1  0.12500000  0.87500000  0.06250000  1
  V  V738  1  0.12500000  0.87500000  0.12500000  1
  V  V739  1  0.12500000  0.87500000  0.18750000  1
  Cr  Cr740  1  0.12500000  0.87500000  0.25000000  1
  Cr  Cr741  1  0.12500000  0.87500000  0.31250000  1
  V  V742  1  0.12500000  0.87500000  0.37500000  1
  V  V743  1  0.12500000  0.87500000  0.43750000  1
  Cr  Cr744  1  0.12500000  0.87500000  0.50000000  1
  V  V745  1  0.12500000  0.87500000  0.56250000  1
  V  V746  1  0.12500000  0.87500000  0.62500000  1
  V  V747  1  0.12500000  0.87500000  0.68750000  1
  V  V748  1  0.12500000  0.87500000  0.75000000  1
  Cr  Cr749  1  0.12500000  0.87500000  0.81250000  1
  V  V750  1  0.12500000  0.87500000  0.87500000  1
  V  V751  1  0.12500000  0.87500000  0.93750000  1
  V  V752  1  0.12500000  0.93750000  0.00000000  1
  V  V753  1  0.12500000  0.93750000  0.06250000  1
  Cr  Cr754  1  0.12500000  0.93750000  0.12500000  1
  Cr  Cr755  1  0.12500000  0.93750000  0.18750000  1
  Cr  Cr756  1  0.12500000  0.93750000  0.25000000  1
  Cr  Cr757  1  0.12500000  0.93750000  0.31250000  1
  V  V758  1  0.12500000  0.93750000  0.37500000  1
  Cr  Cr759  1  0.12500000  0.93750000  0.43750000  1
  Cr  Cr760  1  0.12500000  0.93750000  0.50000000  1
  Cr  Cr761  1  0.12500000  0.93750000  0.56250000  1
  V  V762  1  0.12500000  0.93750000  0.62500000  1
  Cr  Cr763  1  0.12500000  0.93750000  0.68750000  1
  V  V764  1  0.12500000  0.93750000  0.75000000  1
  V  V765  1  0.12500000  0.93750000  0.81250000  1
  Cr  Cr766  1  0.12500000  0.93750000  0.87500000  1
  Cr  Cr767  1  0.12500000  0.93750000  0.93750000  1
  V  V768  1  0.18750000  0.00000000  0.00000000  1
  Cr  Cr769  1  0.18750000  0.00000000  0.06250000  1
  Cr  Cr770  1  0.18750000  0.00000000  0.12500000  1
  V  V771  1  0.18750000  0.00000000  0.18750000  1
  V  V772  1  0.18750000  0.00000000  0.25000000  1
  Cr  Cr773  1  0.18750000  0.00000000  0.31250000  1
  Cr  Cr774  1  0.18750000  0.00000000  0.37500000  1
  Cr  Cr775  1  0.18750000  0.00000000  0.43750000  1
  V  V776  1  0.18750000  0.00000000  0.50000000  1
  Cr  Cr777  1  0.18750000  0.00000000  0.56250000  1
  Cr  Cr778  1  0.18750000  0.00000000  0.62500000  1
  Cr  Cr779  1  0.18750000  0.00000000  0.68750000  1
  V  V780  1  0.18750000  0.00000000  0.75000000  1
  Cr  Cr781  1  0.18750000  0.00000000  0.81250000  1
  Cr  Cr782  1  0.18750000  0.00000000  0.87500000  1
  V  V783  1  0.18750000  0.00000000  0.93750000  1
  V  V784  1  0.18750000  0.06250000  0.00000000  1
  Cr  Cr785  1  0.18750000  0.06250000  0.06250000  1
  V  V786  1  0.18750000  0.06250000  0.12500000  1
  V  V787  1  0.18750000  0.06250000  0.18750000  1
  Cr  Cr788  1  0.18750000  0.06250000  0.25000000  1
  Cr  Cr789  1  0.18750000  0.06250000  0.31250000  1
  V  V790  1  0.18750000  0.06250000  0.37500000  1
  V  V791  1  0.18750000  0.06250000  0.43750000  1
  Cr  Cr792  1  0.18750000  0.06250000  0.50000000  1
  Cr  Cr793  1  0.18750000  0.06250000  0.56250000  1
  Cr  Cr794  1  0.18750000  0.06250000  0.62500000  1
  V  V795  1  0.18750000  0.06250000  0.68750000  1
  Cr  Cr796  1  0.18750000  0.06250000  0.75000000  1
  Cr  Cr797  1  0.18750000  0.06250000  0.81250000  1
  Cr  Cr798  1  0.18750000  0.06250000  0.87500000  1
  V  V799  1  0.18750000  0.06250000  0.93750000  1
  V  V800  1  0.18750000  0.12500000  0.00000000  1
  Cr  Cr801  1  0.18750000  0.12500000  0.06250000  1
  V  V802  1  0.18750000  0.12500000  0.12500000  1
  Cr  Cr803  1  0.18750000  0.12500000  0.18750000  1
  Cr  Cr804  1  0.18750000  0.12500000  0.25000000  1
  V  V805  1  0.18750000  0.12500000  0.31250000  1
  Cr  Cr806  1  0.18750000  0.12500000  0.37500000  1
  Cr  Cr807  1  0.18750000  0.12500000  0.43750000  1
  Cr  Cr808  1  0.18750000  0.12500000  0.50000000  1
  V  V809  1  0.18750000  0.12500000  0.56250000  1
  V  V810  1  0.18750000  0.12500000  0.62500000  1
  Cr  Cr811  1  0.18750000  0.12500000  0.68750000  1
  Cr  Cr812  1  0.18750000  0.12500000  0.75000000  1
  Cr  Cr813  1  0.18750000  0.12500000  0.81250000  1
  V  V814  1  0.18750000  0.12500000  0.87500000  1
  Cr  Cr815  1  0.18750000  0.12500000  0.93750000  1
  V  V816  1  0.18750000  0.18750000  0.00000000  1
  V  V817  1  0.18750000  0.18750000  0.06250000  1
  Cr  Cr818  1  0.18750000  0.18750000  0.12500000  1
  Cr  Cr819  1  0.18750000  0.18750000  0.18750000  1
  V  V820  1  0.18750000  0.18750000  0.25000000  1
  V  V821  1  0.18750000  0.18750000  0.31250000  1
  Cr  Cr822  1  0.18750000  0.18750000  0.37500000  1
  Cr  Cr823  1  0.18750000  0.18750000  0.43750000  1
  V  V824  1  0.18750000  0.18750000  0.50000000  1
  V  V825  1  0.18750000  0.18750000  0.56250000  1
  V  V826  1  0.18750000  0.18750000  0.62500000  1
  Cr  Cr827  1  0.18750000  0.18750000  0.68750000  1
  Cr  Cr828  1  0.18750000  0.18750000  0.75000000  1
  V  V829  1  0.18750000  0.18750000  0.81250000  1
  Cr  Cr830  1  0.18750000  0.18750000  0.87500000  1
  Cr  Cr831  1  0.18750000  0.18750000  0.93750000  1
  Cr  Cr832  1  0.18750000  0.25000000  0.00000000  1
  V  V833  1  0.18750000  0.25000000  0.06250000  1
  Cr  Cr834  1  0.18750000  0.25000000  0.12500000  1
  V  V835  1  0.18750000  0.25000000  0.18750000  1
  V  V836  1  0.18750000  0.25000000  0.25000000  1
  Cr  Cr837  1  0.18750000  0.25000000  0.31250000  1
  Cr  Cr838  1  0.18750000  0.25000000  0.37500000  1
  Cr  Cr839  1  0.18750000  0.25000000  0.43750000  1
  V  V840  1  0.18750000  0.25000000  0.50000000  1
  Cr  Cr841  1  0.18750000  0.25000000  0.56250000  1
  Cr  Cr842  1  0.18750000  0.25000000  0.62500000  1
  V  V843  1  0.18750000  0.25000000  0.68750000  1
  Cr  Cr844  1  0.18750000  0.25000000  0.75000000  1
  V  V845  1  0.18750000  0.25000000  0.81250000  1
  Cr  Cr846  1  0.18750000  0.25000000  0.87500000  1
  V  V847  1  0.18750000  0.25000000  0.93750000  1
  V  V848  1  0.18750000  0.31250000  0.00000000  1
  Ti  Ti849  1  0.18750000  0.31250000  0.06250000  1
  V  V850  1  0.18750000  0.31250000  0.12500000  1
  Cr  Cr851  1  0.18750000  0.31250000  0.18750000  1
  Cr  Cr852  1  0.18750000  0.31250000  0.25000000  1
  Cr  Cr853  1  0.18750000  0.31250000  0.31250000  1
  Cr  Cr854  1  0.18750000  0.31250000  0.37500000  1
  V  V855  1  0.18750000  0.31250000  0.43750000  1
  Cr  Cr856  1  0.18750000  0.31250000  0.50000000  1
  Cr  Cr857  1  0.18750000  0.31250000  0.56250000  1
  Cr  Cr858  1  0.18750000  0.31250000  0.62500000  1
  Cr  Cr859  1  0.18750000  0.31250000  0.68750000  1
  V  V860  1  0.18750000  0.31250000  0.75000000  1
  Ti  Ti861  1  0.18750000  0.31250000  0.81250000  1
  V  V862  1  0.18750000  0.31250000  0.87500000  1
  Ti  Ti863  1  0.18750000  0.31250000  0.93750000  1
  Ti  Ti864  1  0.18750000  0.37500000  0.00000000  1
  V  V865  1  0.18750000  0.37500000  0.06250000  1
  Ti  Ti866  1  0.18750000  0.37500000  0.12500000  1
  V  V867  1  0.18750000  0.37500000  0.18750000  1
  Cr  Cr868  1  0.18750000  0.37500000  0.25000000  1
  V  V869  1  0.18750000  0.37500000  0.31250000  1
  V  V870  1  0.18750000  0.37500000  0.37500000  1
  Cr  Cr871  1  0.18750000  0.37500000  0.43750000  1
  Cr  Cr872  1  0.18750000  0.37500000  0.50000000  1
  Cr  Cr873  1  0.18750000  0.37500000  0.56250000  1
  Cr  Cr874  1  0.18750000  0.37500000  0.62500000  1
  V  V875  1  0.18750000  0.37500000  0.68750000  1
  Ti  Ti876  1  0.18750000  0.37500000  0.75000000  1
  V  V877  1  0.18750000  0.37500000  0.81250000  1
  Ti  Ti878  1  0.18750000  0.37500000  0.87500000  1
  V  V879  1  0.18750000  0.37500000  0.93750000  1
  V  V880  1  0.18750000  0.43750000  0.00000000  1
  Ti  Ti881  1  0.18750000  0.43750000  0.06250000  1
  V  V882  1  0.18750000  0.43750000  0.12500000  1
  Ti  Ti883  1  0.18750000  0.43750000  0.18750000  1
  V  V884  1  0.18750000  0.43750000  0.25000000  1
  Cr  Cr885  1  0.18750000  0.43750000  0.31250000  1
  Cr  Cr886  1  0.18750000  0.43750000  0.37500000  1
  Cr  Cr887  1  0.18750000  0.43750000  0.43750000  1
  Cr  Cr888  1  0.18750000  0.43750000  0.50000000  1
  Cr  Cr889  1  0.18750000  0.43750000  0.56250000  1
  V  V890  1  0.18750000  0.43750000  0.62500000  1
  Ti  Ti891  1  0.18750000  0.43750000  0.68750000  1
  V  V892  1  0.18750000  0.43750000  0.75000000  1
  Ti  Ti893  1  0.18750000  0.43750000  0.81250000  1
  V  V894  1  0.18750000  0.43750000  0.87500000  1
  Ti  Ti895  1  0.18750000  0.43750000  0.93750000  1
  Ti  Ti896  1  0.18750000  0.50000000  0.00000000  1
  V  V897  1  0.18750000  0.50000000  0.06250000  1
  Ti  Ti898  1  0.18750000  0.50000000  0.12500000  1
  V  V899  1  0.18750000  0.50000000  0.18750000  1
  Cr  Cr900  1  0.18750000  0.50000000  0.25000000  1
  Cr  Cr901  1  0.18750000  0.50000000  0.31250000  1
  V  V902  1  0.18750000  0.50000000  0.37500000  1
  Cr  Cr903  1  0.18750000  0.50000000  0.43750000  1
  V  V904  1  0.18750000  0.50000000  0.50000000  1
  V  V905  1  0.18750000  0.50000000  0.56250000  1
  Ti  Ti906  1  0.18750000  0.50000000  0.62500000  1
  V  V907  1  0.18750000  0.50000000  0.68750000  1
  Ti  Ti908  1  0.18750000  0.50000000  0.75000000  1
  V  V909  1  0.18750000  0.50000000  0.81250000  1
  Ti  Ti910  1  0.18750000  0.50000000  0.87500000  1
  V  V911  1  0.18750000  0.50000000  0.93750000  1
  V  V912  1  0.18750000  0.56250000  0.00000000  1
  Ti  Ti913  1  0.18750000  0.56250000  0.06250000  1
  V  V914  1  0.18750000  0.56250000  0.12500000  1
  Ti  Ti915  1  0.18750000  0.56250000  0.18750000  1
  V  V916  1  0.18750000  0.56250000  0.25000000  1
  Cr  Cr917  1  0.18750000  0.56250000  0.31250000  1
  Cr  Cr918  1  0.18750000  0.56250000  0.37500000  1
  V  V919  1  0.18750000  0.56250000  0.43750000  1
  V  V920  1  0.18750000  0.56250000  0.50000000  1
  Cr  Cr921  1  0.18750000  0.56250000  0.56250000  1
  V  V922  1  0.18750000  0.56250000  0.62500000  1
  Ti  Ti923  1  0.18750000  0.56250000  0.68750000  1
  V  V924  1  0.18750000  0.56250000  0.75000000  1
  Ti  Ti925  1  0.18750000  0.56250000  0.81250000  1
  V  V926  1  0.18750000  0.56250000  0.87500000  1
  Ti  Ti927  1  0.18750000  0.56250000  0.93750000  1
  Ti  Ti928  1  0.18750000  0.62500000  0.00000000  1
  V  V929  1  0.18750000  0.62500000  0.06250000  1
  Ti  Ti930  1  0.18750000  0.62500000  0.12500000  1
  V  V931  1  0.18750000  0.62500000  0.18750000  1
  Cr  Cr932  1  0.18750000  0.62500000  0.25000000  1
  V  V933  1  0.18750000  0.62500000  0.31250000  1
  V  V934  1  0.18750000  0.62500000  0.37500000  1
  Cr  Cr935  1  0.18750000  0.62500000  0.43750000  1
  V  V936  1  0.18750000  0.62500000  0.50000000  1
  V  V937  1  0.18750000  0.62500000  0.56250000  1
  Ti  Ti938  1  0.18750000  0.62500000  0.62500000  1
  V  V939  1  0.18750000  0.62500000  0.68750000  1
  Ti  Ti940  1  0.18750000  0.62500000  0.75000000  1
  V  V941  1  0.18750000  0.62500000  0.81250000  1
  Ti  Ti942  1  0.18750000  0.62500000  0.87500000  1
  V  V943  1  0.18750000  0.62500000  0.93750000  1
  V  V944  1  0.18750000  0.68750000  0.00000000  1
  Ti  Ti945  1  0.18750000  0.68750000  0.06250000  1
  V  V946  1  0.18750000  0.68750000  0.12500000  1
  Cr  Cr947  1  0.18750000  0.68750000  0.18750000  1
  V  V948  1  0.18750000  0.68750000  0.25000000  1
  V  V949  1  0.18750000  0.68750000  0.31250000  1
  Cr  Cr950  1  0.18750000  0.68750000  0.37500000  1
  Cr  Cr951  1  0.18750000  0.68750000  0.43750000  1
  V  V952  1  0.18750000  0.68750000  0.50000000  1
  Cr  Cr953  1  0.18750000  0.68750000  0.56250000  1
  V  V954  1  0.18750000  0.68750000  0.62500000  1
  Ti  Ti955  1  0.18750000  0.68750000  0.68750000  1
  V  V956  1  0.18750000  0.68750000  0.75000000  1
  Ti  Ti957  1  0.18750000  0.68750000  0.81250000  1
  V  V958  1  0.18750000  0.68750000  0.87500000  1
  Ti  Ti959  1  0.18750000  0.68750000  0.93750000  1
  Ti  Ti960  1  0.18750000  0.75000000  0.00000000  1
  V  V961  1  0.18750000  0.75000000  0.06250000  1
  Cr  Cr962  1  0.18750000  0.75000000  0.12500000  1
  V  V963  1  0.18750000  0.75000000  0.18750000  1
  Cr  Cr964  1  0.18750000  0.75000000  0.25000000  1
  Cr  Cr965  1  0.18750000  0.75000000  0.31250000  1
  Cr  Cr966  1  0.18750000  0.75000000  0.37500000  1
  V  V967  1  0.18750000  0.75000000  0.43750000  1
  Cr  Cr968  1  0.18750000  0.75000000  0.50000000  1
  Cr  Cr969  1  0.18750000  0.75000000  0.56250000  1
  Cr  Cr970  1  0.18750000  0.75000000  0.62500000  1
  V  V971  1  0.18750000  0.75000000  0.68750000  1
  Ti  Ti972  1  0.18750000  0.75000000  0.75000000  1
  V  V973  1  0.18750000  0.75000000  0.81250000  1
  Ti  Ti974  1  0.18750000  0.75000000  0.87500000  1
  V  V975  1  0.18750000  0.75000000  0.93750000  1
  V  V976  1  0.18750000  0.81250000  0.00000000  1
  Cr  Cr977  1  0.18750000  0.81250000  0.06250000  1
  V  V978  1  0.18750000  0.81250000  0.12500000  1
  Cr  Cr979  1  0.18750000  0.81250000  0.18750000  1
  V  V980  1  0.18750000  0.81250000  0.25000000  1
  Cr  Cr981  1  0.18750000  0.81250000  0.31250000  1
  V  V982  1  0.18750000  0.81250000  0.37500000  1
  Cr  Cr983  1  0.18750000  0.81250000  0.43750000  1
  Cr  Cr984  1  0.18750000  0.81250000  0.50000000  1
  Cr  Cr985  1  0.18750000  0.81250000  0.56250000  1
  V  V986  1  0.18750000  0.81250000  0.62500000  1
  Cr  Cr987  1  0.18750000  0.81250000  0.68750000  1
  V  V988  1  0.18750000  0.81250000  0.75000000  1
  Ti  Ti989  1  0.18750000  0.81250000  0.81250000  1
  V  V990  1  0.18750000  0.81250000  0.87500000  1
  Ti  Ti991  1  0.18750000  0.81250000  0.93750000  1
  Cr  Cr992  1  0.18750000  0.87500000  0.00000000  1
  V  V993  1  0.18750000  0.87500000  0.06250000  1
  Cr  Cr994  1  0.18750000  0.87500000  0.12500000  1
  Cr  Cr995  1  0.18750000  0.87500000  0.18750000  1
  Cr  Cr996  1  0.18750000  0.87500000  0.25000000  1
  V  V997  1  0.18750000  0.87500000  0.31250000  1
  Cr  Cr998  1  0.18750000  0.87500000  0.37500000  1
  Cr  Cr999  1  0.18750000  0.87500000  0.43750000  1
  Cr  Cr1000  1  0.18750000  0.87500000  0.50000000  1
  V  V1001  1  0.18750000  0.87500000  0.56250000  1
  Cr  Cr1002  1  0.18750000  0.87500000  0.62500000  1
  Cr  Cr1003  1  0.18750000  0.87500000  0.68750000  1
  Cr  Cr1004  1  0.18750000  0.87500000  0.75000000  1
  V  V1005  1  0.18750000  0.87500000  0.81250000  1
  Ti  Ti1006  1  0.18750000  0.87500000  0.87500000  1
  V  V1007  1  0.18750000  0.87500000  0.93750000  1
  V  V1008  1  0.18750000  0.93750000  0.00000000  1
  V  V1009  1  0.18750000  0.93750000  0.06250000  1
  Cr  Cr1010  1  0.18750000  0.93750000  0.12500000  1
  V  V1011  1  0.18750000  0.93750000  0.18750000  1
  Cr  Cr1012  1  0.18750000  0.93750000  0.25000000  1
  V  V1013  1  0.18750000  0.93750000  0.31250000  1
  Cr  Cr1014  1  0.18750000  0.93750000  0.37500000  1
  V  V1015  1  0.18750000  0.93750000  0.43750000  1
  V  V1016  1  0.18750000  0.93750000  0.50000000  1
  V  V1017  1  0.18750000  0.93750000  0.56250000  1
  Cr  Cr1018  1  0.18750000  0.93750000  0.62500000  1
  Cr  Cr1019  1  0.18750000  0.93750000  0.68750000  1
  Cr  Cr1020  1  0.18750000  0.93750000  0.75000000  1
  V  V1021  1  0.18750000  0.93750000  0.81250000  1
  V  V1022  1  0.18750000  0.93750000  0.87500000  1
  Cr  Cr1023  1  0.18750000  0.93750000  0.93750000  1
  Cr  Cr1024  1  0.25000000  0.00000000  0.00000000  1
  Cr  Cr1025  1  0.25000000  0.00000000  0.06250000  1
  V  V1026  1  0.25000000  0.00000000  0.12500000  1
  V  V1027  1  0.25000000  0.00000000  0.18750000  1
  Cr  Cr1028  1  0.25000000  0.00000000  0.25000000  1
  Cr  Cr1029  1  0.25000000  0.00000000  0.31250000  1
  Cr  Cr1030  1  0.25000000  0.00000000  0.37500000  1
  V  V1031  1  0.25000000  0.00000000  0.43750000  1
  Cr  Cr1032  1  0.25000000  0.00000000  0.50000000  1
  Cr  Cr1033  1  0.25000000  0.00000000  0.56250000  1
  Cr  Cr1034  1  0.25000000  0.00000000  0.62500000  1
  V  V1035  1  0.25000000  0.00000000  0.68750000  1
  Cr  Cr1036  1  0.25000000  0.00000000  0.75000000  1
  V  V1037  1  0.25000000  0.00000000  0.81250000  1
  Cr  Cr1038  1  0.25000000  0.00000000  0.87500000  1
  V  V1039  1  0.25000000  0.00000000  0.93750000  1
  Cr  Cr1040  1  0.25000000  0.06250000  0.00000000  1
  Cr  Cr1041  1  0.25000000  0.06250000  0.06250000  1
  V  V1042  1  0.25000000  0.06250000  0.12500000  1
  Cr  Cr1043  1  0.25000000  0.06250000  0.18750000  1
  Cr  Cr1044  1  0.25000000  0.06250000  0.25000000  1
  V  V1045  1  0.25000000  0.06250000  0.31250000  1
  V  V1046  1  0.25000000  0.06250000  0.37500000  1
  Cr  Cr1047  1  0.25000000  0.06250000  0.43750000  1
  Cr  Cr1048  1  0.25000000  0.06250000  0.50000000  1
  Cr  Cr1049  1  0.25000000  0.06250000  0.56250000  1
  V  V1050  1  0.25000000  0.06250000  0.62500000  1
  Cr  Cr1051  1  0.25000000  0.06250000  0.68750000  1
  Cr  Cr1052  1  0.25000000  0.06250000  0.75000000  1
  Cr  Cr1053  1  0.25000000  0.06250000  0.81250000  1
  V  V1054  1  0.25000000  0.06250000  0.87500000  1
  Cr  Cr1055  1  0.25000000  0.06250000  0.93750000  1
  Cr  Cr1056  1  0.25000000  0.12500000  0.00000000  1
  V  V1057  1  0.25000000  0.12500000  0.06250000  1
  Cr  Cr1058  1  0.25000000  0.12500000  0.12500000  1
  Cr  Cr1059  1  0.25000000  0.12500000  0.18750000  1
  Cr  Cr1060  1  0.25000000  0.12500000  0.25000000  1
  V  V1061  1  0.25000000  0.12500000  0.31250000  1
  Cr  Cr1062  1  0.25000000  0.12500000  0.37500000  1
  Cr  Cr1063  1  0.25000000  0.12500000  0.43750000  1
  V  V1064  1  0.25000000  0.12500000  0.50000000  1
  V  V1065  1  0.25000000  0.12500000  0.56250000  1
  Cr  Cr1066  1  0.25000000  0.12500000  0.62500000  1
  Cr  Cr1067  1  0.25000000  0.12500000  0.68750000  1
  V  V1068  1  0.25000000  0.12500000  0.75000000  1
  V  V1069  1  0.25000000  0.12500000  0.81250000  1
  V  V1070  1  0.25000000  0.12500000  0.87500000  1
  Cr  Cr1071  1  0.25000000  0.12500000  0.93750000  1
  V  V1072  1  0.25000000  0.18750000  0.00000000  1
  Cr  Cr1073  1  0.25000000  0.18750000  0.06250000  1
  Cr  Cr1074  1  0.25000000  0.18750000  0.12500000  1
  Cr  Cr1075  1  0.25000000  0.18750000  0.18750000  1
  V  V1076  1  0.25000000  0.18750000  0.25000000  1
  Cr  Cr1077  1  0.25000000  0.18750000  0.31250000  1
  Cr  Cr1078  1  0.25000000  0.18750000  0.37500000  1
  V  V1079  1  0.25000000  0.18750000  0.43750000  1
  Cr  Cr1080  1  0.25000000  0.18750000  0.50000000  1
  Cr  Cr1081  1  0.25000000  0.18750000  0.56250000  1
  Cr  Cr1082  1  0.25000000  0.18750000  0.62500000  1
  Cr  Cr1083  1  0.25000000  0.18750000  0.68750000  1
  V  V1084  1  0.25000000  0.18750000  0.75000000  1
  Cr  Cr1085  1  0.25000000  0.18750000  0.81250000  1
  Cr  Cr1086  1  0.25000000  0.18750000  0.87500000  1
  V  V1087  1  0.25000000  0.18750000  0.93750000  1
  V  V1088  1  0.25000000  0.25000000  0.00000000  1
  Cr  Cr1089  1  0.25000000  0.25000000  0.06250000  1
  Cr  Cr1090  1  0.25000000  0.25000000  0.12500000  1
  V  V1091  1  0.25000000  0.25000000  0.18750000  1
  Cr  Cr1092  1  0.25000000  0.25000000  0.25000000  1
  Cr  Cr1093  1  0.25000000  0.25000000  0.31250000  1
  V  V1094  1  0.25000000  0.25000000  0.37500000  1
  V  V1095  1  0.25000000  0.25000000  0.43750000  1
  Cr  Cr1096  1  0.25000000  0.25000000  0.50000000  1
  Cr  Cr1097  1  0.25000000  0.25000000  0.56250000  1
  Cr  Cr1098  1  0.25000000  0.25000000  0.62500000  1
  Cr  Cr1099  1  0.25000000  0.25000000  0.68750000  1
  V  V1100  1  0.25000000  0.25000000  0.75000000  1
  V  V1101  1  0.25000000  0.25000000  0.81250000  1
  V  V1102  1  0.25000000  0.25000000  0.87500000  1
  Cr  Cr1103  1  0.25000000  0.25000000  0.93750000  1
  Ti  Ti1104  1  0.25000000  0.31250000  0.00000000  1
  V  V1105  1  0.25000000  0.31250000  0.06250000  1
  Cr  Cr1106  1  0.25000000  0.31250000  0.12500000  1
  V  V1107  1  0.25000000  0.31250000  0.18750000  1
  V  V1108  1  0.25000000  0.31250000  0.25000000  1
  V  V1109  1  0.25000000  0.31250000  0.31250000  1
  V  V1110  1  0.25000000  0.31250000  0.37500000  1
  Cr  Cr1111  1  0.25000000  0.31250000  0.43750000  1
  Cr  Cr1112  1  0.25000000  0.31250000  0.50000000  1
  Cr  Cr1113  1  0.25000000  0.31250000  0.56250000  1
  V  V1114  1  0.25000000  0.31250000  0.62500000  1
  V  V1115  1  0.25000000  0.31250000  0.68750000  1
  Cr  Cr1116  1  0.25000000  0.31250000  0.75000000  1
  V  V1117  1  0.25000000  0.31250000  0.81250000  1
  Cr  Cr1118  1  0.25000000  0.31250000  0.87500000  1
  V  V1119  1  0.25000000  0.31250000  0.93750000  1
  V  V1120  1  0.25000000  0.37500000  0.00000000  1
  Ti  Ti1121  1  0.25000000  0.37500000  0.06250000  1
  V  V1122  1  0.25000000  0.37500000  0.12500000  1
  Cr  Cr1123  1  0.25000000  0.37500000  0.18750000  1
  V  V1124  1  0.25000000  0.37500000  0.25000000  1
  V  V1125  1  0.25000000  0.37500000  0.31250000  1
  V  V1126  1  0.25000000  0.37500000  0.37500000  1
  V  V1127  1  0.25000000  0.37500000  0.43750000  1
  V  V1128  1  0.25000000  0.37500000  0.50000000  1
  V  V1129  1  0.25000000  0.37500000  0.56250000  1
  V  V1130  1  0.25000000  0.37500000  0.62500000  1
  Cr  Cr1131  1  0.25000000  0.37500000  0.68750000  1
  V  V1132  1  0.25000000  0.37500000  0.75000000  1
  Ti  Ti1133  1  0.25000000  0.37500000  0.81250000  1
  V  V1134  1  0.25000000  0.37500000  0.87500000  1
  Ti  Ti1135  1  0.25000000  0.37500000  0.93750000  1
  Ti  Ti1136  1  0.25000000  0.43750000  0.00000000  1
  V  V1137  1  0.25000000  0.43750000  0.06250000  1
  Ti  Ti1138  1  0.25000000  0.43750000  0.12500000  1
  V  V1139  1  0.25000000  0.43750000  0.18750000  1
  Cr  Cr1140  1  0.25000000  0.43750000  0.25000000  1
  V  V1141  1  0.25000000  0.43750000  0.31250000  1
  V  V1142  1  0.25000000  0.43750000  0.37500000  1
  V  V1143  1  0.25000000  0.43750000  0.43750000  1
  V  V1144  1  0.25000000  0.43750000  0.50000000  1
  V  V1145  1  0.25000000  0.43750000  0.56250000  1
  V  V1146  1  0.25000000  0.43750000  0.62500000  1
  V  V1147  1  0.25000000  0.43750000  0.68750000  1
  Ti  Ti1148  1  0.25000000  0.43750000  0.75000000  1
  V  V1149  1  0.25000000  0.43750000  0.81250000  1
  Ti  Ti1150  1  0.25000000  0.43750000  0.87500000  1
  V  V1151  1  0.25000000  0.43750000  0.93750000  1
  V  V1152  1  0.25000000  0.50000000  0.00000000  1
  Ti  Ti1153  1  0.25000000  0.50000000  0.06250000  1
  V  V1154  1  0.25000000  0.50000000  0.12500000  1
  Ti  Ti1155  1  0.25000000  0.50000000  0.18750000  1
  V  V1156  1  0.25000000  0.50000000  0.25000000  1
  V  V1157  1  0.25000000  0.50000000  0.31250000  1
  V  V1158  1  0.25000000  0.50000000  0.37500000  1
  V  V1159  1  0.25000000  0.50000000  0.43750000  1
  V  V1160  1  0.25000000  0.50000000  0.50000000  1
  V  V1161  1  0.25000000  0.50000000  0.56250000  1
  V  V1162  1  0.25000000  0.50000000  0.62500000  1
  Ti  Ti1163  1  0.25000000  0.50000000  0.68750000  1
  V  V1164  1  0.25000000  0.50000000  0.75000000  1
  Ti  Ti1165  1  0.25000000  0.50000000  0.81250000  1
  V  V1166  1  0.25000000  0.50000000  0.87500000  1
  Ti  Ti1167  1  0.25000000  0.50000000  0.93750000  1
  Ti  Ti1168  1  0.25000000  0.56250000  0.00000000  1
  V  V1169  1  0.25000000  0.56250000  0.06250000  1
  Ti  Ti1170  1  0.25000000  0.56250000  0.12500000  1
  V  V1171  1  0.25000000  0.56250000  0.18750000  1
  Ti  Ti1172  1  0.25000000  0.56250000  0.25000000  1
  V  V1173  1  0.25000000  0.56250000  0.31250000  1
  V  V1174  1  0.25000000  0.56250000  0.37500000  1
  V  V1175  1  0.25000000  0.56250000  0.43750000  1
  V  V1176  1  0.25000000  0.56250000  0.50000000  1
  V  V1177  1  0.25000000  0.56250000  0.56250000  1
  Ti  Ti1178  1  0.25000000  0.56250000  0.62500000  1
  V  V1179  1  0.25000000  0.56250000  0.68750000  1
  Ti  Ti1180  1  0.25000000  0.56250000  0.75000000  1
  V  V1181  1  0.25000000  0.56250000  0.81250000  1
  Ti  Ti1182  1  0.25000000  0.56250000  0.87500000  1
  V  V1183  1  0.25000000  0.56250000  0.93750000  1
  V  V1184  1  0.25000000  0.62500000  0.00000000  1
  Ti  Ti1185  1  0.25000000  0.62500000  0.06250000  1
  V  V1186  1  0.25000000  0.62500000  0.12500000  1
  Ti  Ti1187  1  0.25000000  0.62500000  0.18750000  1
  V  V1188  1  0.25000000  0.62500000  0.25000000  1
  Cr  Cr1189  1  0.25000000  0.62500000  0.31250000  1
  Cr  Cr1190  1  0.25000000  0.62500000  0.37500000  1
  V  V1191  1  0.25000000  0.62500000  0.43750000  1
  V  V1192  1  0.25000000  0.62500000  0.50000000  1
  Cr  Cr1193  1  0.25000000  0.62500000  0.56250000  1
  V  V1194  1  0.25000000  0.62500000  0.62500000  1
  Ti  Ti1195  1  0.25000000  0.62500000  0.68750000  1
  V  V1196  1  0.25000000  0.62500000  0.75000000  1
  Ti  Ti1197  1  0.25000000  0.62500000  0.81250000  1
  V  V1198  1  0.25000000  0.62500000  0.87500000  1
  Ti  Ti1199  1  0.25000000  0.62500000  0.93750000  1
  Ti  Ti1200  1  0.25000000  0.68750000  0.00000000  1
  V  V1201  1  0.25000000  0.68750000  0.06250000  1
  Ti  Ti1202  1  0.25000000  0.68750000  0.12500000  1
  V  V1203  1  0.25000000  0.68750000  0.18750000  1
  Cr  Cr1204  1  0.25000000  0.68750000  0.25000000  1
  Cr  Cr1205  1  0.25000000  0.68750000  0.31250000  1
  Cr  Cr1206  1  0.25000000  0.68750000  0.37500000  1
  V  V1207  1  0.25000000  0.68750000  0.43750000  1
  V  V1208  1  0.25000000  0.68750000  0.50000000  1
  V  V1209  1  0.25000000  0.68750000  0.56250000  1
  Cr  Cr1210  1  0.25000000  0.68750000  0.62500000  1
  V  V1211  1  0.25000000  0.68750000  0.68750000  1
  Ti  Ti1212  1  0.25000000  0.68750000  0.75000000  1
  V  V1213  1  0.25000000  0.68750000  0.81250000  1
  Ti  Ti1214  1  0.25000000  0.68750000  0.87500000  1
  V  V1215  1  0.25000000  0.68750000  0.93750000  1
  V  V1216  1  0.25000000  0.75000000  0.00000000  1
  Ti  Ti1217  1  0.25000000  0.75000000  0.06250000  1
  V  V1218  1  0.25000000  0.75000000  0.12500000  1
  Ti  Ti1219  1  0.25000000  0.75000000  0.18750000  1
  V  V1220  1  0.25000000  0.75000000  0.25000000  1
  Cr  Cr1221  1  0.25000000  0.75000000  0.31250000  1
  V  V1222  1  0.25000000  0.75000000  0.37500000  1
  Cr  Cr1223  1  0.25000000  0.75000000  0.43750000  1
  Cr  Cr1224  1  0.25000000  0.75000000  0.50000000  1
  Cr  Cr1225  1  0.25000000  0.75000000  0.56250000  1
  V  V1226  1  0.25000000  0.75000000  0.62500000  1
  Ti  Ti1227  1  0.25000000  0.75000000  0.68750000  1
  V  V1228  1  0.25000000  0.75000000  0.75000000  1
  Ti  Ti1229  1  0.25000000  0.75000000  0.81250000  1
  V  V1230  1  0.25000000  0.75000000  0.87500000  1
  Ti  Ti1231  1  0.25000000  0.75000000  0.93750000  1
  Ti  Ti1232  1  0.25000000  0.81250000  0.00000000  1
  V  V1233  1  0.25000000  0.81250000  0.06250000  1
  Cr  Cr1234  1  0.25000000  0.81250000  0.12500000  1
  Cr  Cr1235  1  0.25000000  0.81250000  0.18750000  1
  Cr  Cr1236  1  0.25000000  0.81250000  0.25000000  1
  V  V1237  1  0.25000000  0.81250000  0.31250000  1
  Cr  Cr1238  1  0.25000000  0.81250000  0.37500000  1
  Cr  Cr1239  1  0.25000000  0.81250000  0.43750000  1
  V  V1240  1  0.25000000  0.81250000  0.50000000  1
  Cr  Cr1241  1  0.25000000  0.81250000  0.56250000  1
  V  V1242  1  0.25000000  0.81250000  0.62500000  1
  V  V1243  1  0.25000000  0.81250000  0.68750000  1
  Ti  Ti1244  1  0.25000000  0.81250000  0.75000000  1
  V  V1245  1  0.25000000  0.81250000  0.81250000  1
  Ti  Ti1246  1  0.25000000  0.81250000  0.87500000  1
  V  V1247  1  0.25000000  0.81250000  0.93750000  1
  V  V1248  1  0.25000000  0.87500000  0.00000000  1
  Cr  Cr1249  1  0.25000000  0.87500000  0.06250000  1
  Cr  Cr1250  1  0.25000000  0.87500000  0.12500000  1
  V  V1251  1  0.25000000  0.87500000  0.18750000  1
  V  V1252  1  0.25000000  0.87500000  0.25000000  1
  Cr  Cr1253  1  0.25000000  0.87500000  0.31250000  1
  Cr  Cr1254  1  0.25000000  0.87500000  0.37500000  1
  V  V1255  1  0.25000000  0.87500000  0.43750000  1
  V  V1256  1  0.25000000  0.87500000  0.50000000  1
  V  V1257  1  0.25000000  0.87500000  0.56250000  1
  V  V1258  1  0.25000000  0.87500000  0.62500000  1
  Cr  Cr1259  1  0.25000000  0.87500000  0.68750000  1
  V  V1260  1  0.25000000  0.87500000  0.75000000  1
  Cr  Cr1261  1  0.25000000  0.87500000  0.81250000  1
  V  V1262  1  0.25000000  0.87500000  0.87500000  1
  Ti  Ti1263  1  0.25000000  0.87500000  0.93750000  1
  Cr  Cr1264  1  0.25000000  0.93750000  0.00000000  1
  Cr  Cr1265  1  0.25000000  0.93750000  0.06250000  1
  Cr  Cr1266  1  0.25000000  0.93750000  0.12500000  1
  Cr  Cr1267  1  0.25000000  0.93750000  0.18750000  1
  Cr  Cr1268  1  0.25000000  0.93750000  0.25000000  1
  Cr  Cr1269  1  0.25000000  0.93750000  0.31250000  1
  Cr  Cr1270  1  0.25000000  0.93750000  0.37500000  1
  V  V1271  1  0.25000000  0.93750000  0.43750000  1
  Cr  Cr1272  1  0.25000000  0.93750000  0.50000000  1
  Cr  Cr1273  1  0.25000000  0.93750000  0.56250000  1
  Cr  Cr1274  1  0.25000000  0.93750000  0.62500000  1
  V  V1275  1  0.25000000  0.93750000  0.68750000  1
  V  V1276  1  0.25000000  0.93750000  0.75000000  1
  Cr  Cr1277  1  0.25000000  0.93750000  0.81250000  1
  Cr  Cr1278  1  0.25000000  0.93750000  0.87500000  1
  V  V1279  1  0.25000000  0.93750000  0.93750000  1
  Cr  Cr1280  1  0.31250000  0.00000000  0.00000000  1
  V  V1281  1  0.31250000  0.00000000  0.06250000  1
  Cr  Cr1282  1  0.31250000  0.00000000  0.12500000  1
  Cr  Cr1283  1  0.31250000  0.00000000  0.18750000  1
  V  V1284  1  0.31250000  0.00000000  0.25000000  1
  Cr  Cr1285  1  0.31250000  0.00000000  0.31250000  1
  V  V1286  1  0.31250000  0.00000000  0.37500000  1
  Cr  Cr1287  1  0.31250000  0.00000000  0.43750000  1
  Cr  Cr1288  1  0.31250000  0.00000000  0.50000000  1
  V  V1289  1  0.31250000  0.00000000  0.56250000  1
  V  V1290  1  0.31250000  0.00000000  0.62500000  1
  Cr  Cr1291  1  0.31250000  0.00000000  0.68750000  1
  Cr  Cr1292  1  0.31250000  0.00000000  0.75000000  1
  Cr  Cr1293  1  0.31250000  0.00000000  0.81250000  1
  V  V1294  1  0.31250000  0.00000000  0.87500000  1
  Cr  Cr1295  1  0.31250000  0.00000000  0.93750000  1
  Cr  Cr1296  1  0.31250000  0.06250000  0.00000000  1
  V  V1297  1  0.31250000  0.06250000  0.06250000  1
  Cr  Cr1298  1  0.31250000  0.06250000  0.12500000  1
  Cr  Cr1299  1  0.31250000  0.06250000  0.18750000  1
  Cr  Cr1300  1  0.31250000  0.06250000  0.25000000  1
  V  V1301  1  0.31250000  0.06250000  0.31250000  1
  Cr  Cr1302  1  0.31250000  0.06250000  0.37500000  1
  Cr  Cr1303  1  0.31250000  0.06250000  0.43750000  1
  V  V1304  1  0.31250000  0.06250000  0.50000000  1
  V  V1305  1  0.31250000  0.06250000  0.56250000  1
  Cr  Cr1306  1  0.31250000  0.06250000  0.62500000  1
  Cr  Cr1307  1  0.31250000  0.06250000  0.68750000  1
  V  V1308  1  0.31250000  0.06250000  0.75000000  1
  V  V1309  1  0.31250000  0.06250000  0.81250000  1
  Cr  Cr1310  1  0.31250000  0.06250000  0.87500000  1
  Cr  Cr1311  1  0.31250000  0.06250000  0.93750000  1
  V  V1312  1  0.31250000  0.12500000  0.00000000  1
  V  V1313  1  0.31250000  0.12500000  0.06250000  1
  Cr  Cr1314  1  0.31250000  0.12500000  0.12500000  1
  Cr  Cr1315  1  0.31250000  0.12500000  0.18750000  1
  V  V1316  1  0.31250000  0.12500000  0.25000000  1
  Cr  Cr1317  1  0.31250000  0.12500000  0.31250000  1
  Cr  Cr1318  1  0.31250000  0.12500000  0.37500000  1
  V  V1319  1  0.31250000  0.12500000  0.43750000  1
  Cr  Cr1320  1  0.31250000  0.12500000  0.50000000  1
  Cr  Cr1321  1  0.31250000  0.12500000  0.56250000  1
  Cr  Cr1322  1  0.31250000  0.12500000  0.62500000  1
  V  V1323  1  0.31250000  0.12500000  0.68750000  1
  Cr  Cr1324  1  0.31250000  0.12500000  0.75000000  1
  Cr  Cr1325  1  0.31250000  0.12500000  0.81250000  1
  Cr  Cr1326  1  0.31250000  0.12500000  0.87500000  1
  Cr  Cr1327  1  0.31250000  0.12500000  0.93750000  1
  Cr  Cr1328  1  0.31250000  0.18750000  0.00000000  1
  V  V1329  1  0.31250000  0.18750000  0.06250000  1
  Cr  Cr1330  1  0.31250000  0.18750000  0.12500000  1
  V  V1331  1  0.31250000  0.18750000  0.18750000  1
  V  V1332  1  0.31250000  0.18750000  0.25000000  1
  Cr  Cr1333  1  0.31250000  0.18750000  0.31250000  1
  V  V1334  1  0.31250000  0.18750000  0.37500000  1
  Cr  Cr1335  1  0.31250000  0.18750000  0.43750000  1
  Cr  Cr1336  1  0.31250000  0.18750000  0.50000000  1
  Cr  Cr1337  1  0.31250000  0.18750000  0.56250000  1
  Cr  Cr1338  1  0.31250000  0.18750000  0.62500000  1
  V  V1339  1  0.31250000  0.18750000  0.68750000  1
  Cr  Cr1340  1  0.31250000  0.18750000  0.75000000  1
  Cr  Cr1341  1  0.31250000  0.18750000  0.81250000  1
  V  V1342  1  0.31250000  0.18750000  0.87500000  1
  Cr  Cr1343  1  0.31250000  0.18750000  0.93750000  1
  V  V1344  1  0.31250000  0.25000000  0.00000000  1
  Cr  Cr1345  1  0.31250000  0.25000000  0.06250000  1
  V  V1346  1  0.31250000  0.25000000  0.12500000  1
  V  V1347  1  0.31250000  0.25000000  0.18750000  1
  V  V1348  1  0.31250000  0.25000000  0.25000000  1
  V  V1349  1  0.31250000  0.25000000  0.31250000  1
  Cr  Cr1350  1  0.31250000  0.25000000  0.37500000  1
  Cr  Cr1351  1  0.31250000  0.25000000  0.43750000  1
  V  V1352  1  0.31250000  0.25000000  0.50000000  1
  V  V1353  1  0.31250000  0.25000000  0.56250000  1
  V  V1354  1  0.31250000  0.25000000  0.62500000  1
  V  V1355  1  0.31250000  0.25000000  0.68750000  1
  Cr  Cr1356  1  0.31250000  0.25000000  0.75000000  1
  Cr  Cr1357  1  0.31250000  0.25000000  0.81250000  1
  V  V1358  1  0.31250000  0.25000000  0.87500000  1
  Cr  Cr1359  1  0.31250000  0.25000000  0.93750000  1
  V  V1360  1  0.31250000  0.31250000  0.00000000  1
  Cr  Cr1361  1  0.31250000  0.31250000  0.06250000  1
  V  V1362  1  0.31250000  0.31250000  0.12500000  1
  V  V1363  1  0.31250000  0.31250000  0.18750000  1
  V  V1364  1  0.31250000  0.31250000  0.25000000  1
  V  V1365  1  0.31250000  0.31250000  0.31250000  1
  V  V1366  1  0.31250000  0.31250000  0.37500000  1
  V  V1367  1  0.31250000  0.31250000  0.43750000  1
  Cr  Cr1368  1  0.31250000  0.31250000  0.50000000  1
  V  V1369  1  0.31250000  0.31250000  0.56250000  1
  Cr  Cr1370  1  0.31250000  0.31250000  0.62500000  1
  Cr  Cr1371  1  0.31250000  0.31250000  0.68750000  1
  Cr  Cr1372  1  0.31250000  0.31250000  0.75000000  1
  Cr  Cr1373  1  0.31250000  0.31250000  0.81250000  1
  V  V1374  1  0.31250000  0.31250000  0.87500000  1
  Cr  Cr1375  1  0.31250000  0.31250000  0.93750000  1
  Cr  Cr1376  1  0.31250000  0.37500000  0.00000000  1
  V  V1377  1  0.31250000  0.37500000  0.06250000  1
  Cr  Cr1378  1  0.31250000  0.37500000  0.12500000  1
  V  V1379  1  0.31250000  0.37500000  0.18750000  1
  V  V1380  1  0.31250000  0.37500000  0.25000000  1
  V  V1381  1  0.31250000  0.37500000  0.31250000  1
  V  V1382  1  0.31250000  0.37500000  0.37500000  1
  V  V1383  1  0.31250000  0.37500000  0.43750000  1
  V  V1384  1  0.31250000  0.37500000  0.50000000  1
  Cr  Cr1385  1  0.31250000  0.37500000  0.56250000  1
  Cr  Cr1386  1  0.31250000  0.37500000  0.62500000  1
  Cr  Cr1387  1  0.31250000  0.37500000  0.68750000  1
  Cr  Cr1388  1  0.31250000  0.37500000  0.75000000  1
  V  V1389  1  0.31250000  0.37500000  0.81250000  1
  Cr  Cr1390  1  0.31250000  0.37500000  0.87500000  1
  V  V1391  1  0.31250000  0.37500000  0.93750000  1
  V  V1392  1  0.31250000  0.43750000  0.00000000  1
  Ti  Ti1393  1  0.31250000  0.43750000  0.06250000  1
  V  V1394  1  0.31250000  0.43750000  0.12500000  1
  Ti  Ti1395  1  0.31250000  0.43750000  0.18750000  1
  V  V1396  1  0.31250000  0.43750000  0.25000000  1
  V  V1397  1  0.31250000  0.43750000  0.31250000  1
  V  V1398  1  0.31250000  0.43750000  0.37500000  1
  V  V1399  1  0.31250000  0.43750000  0.43750000  1
  V  V1400  1  0.31250000  0.43750000  0.50000000  1
  V  V1401  1  0.31250000  0.43750000  0.56250000  1
  V  V1402  1  0.31250000  0.43750000  0.62500000  1
  Cr  Cr1403  1  0.31250000  0.43750000  0.68750000  1
  V  V1404  1  0.31250000  0.43750000  0.75000000  1
  Ti  Ti1405  1  0.31250000  0.43750000  0.81250000  1
  V  V1406  1  0.31250000  0.43750000  0.87500000  1
  Ti  Ti1407  1  0.31250000  0.43750000  0.93750000  1
  Ti  Ti1408  1  0.31250000  0.50000000  0.00000000  1
  V  V1409  1  0.31250000  0.50000000  0.06250000  1
  Ti  Ti1410  1  0.31250000  0.50000000  0.12500000  1
  V  V1411  1  0.31250000  0.50000000  0.18750000  1
  Cr  Cr1412  1  0.31250000  0.50000000  0.25000000  1
  V  V1413  1  0.31250000  0.50000000  0.31250000  1
  V  V1414  1  0.31250000  0.50000000  0.37500000  1
  V  V1415  1  0.31250000  0.50000000  0.43750000  1
  V  V1416  1  0.31250000  0.50000000  0.50000000  1
  V  V1417  1  0.31250000  0.50000000  0.56250000  1
  V  V1418  1  0.31250000  0.50000000  0.62500000  1
  Cr  Cr1419  1  0.31250000  0.50000000  0.68750000  1
  Ti  Ti1420  1  0.31250000  0.50000000  0.75000000  1
  V  V1421  1  0.31250000  0.50000000  0.81250000  1
  Ti  Ti1422  1  0.31250000  0.50000000  0.87500000  1
  V  V1423  1  0.31250000  0.50000000  0.93750000  1
  V  V1424  1  0.31250000  0.56250000  0.00000000  1
  Ti  Ti1425  1  0.31250000  0.56250000  0.06250000  1
  V  V1426  1  0.31250000  0.56250000  0.12500000  1
  Ti  Ti1427  1  0.31250000  0.56250000  0.18750000  1
  V  V1428  1  0.31250000  0.56250000  0.25000000  1
  V  V1429  1  0.31250000  0.56250000  0.31250000  1
  V  V1430  1  0.31250000  0.56250000  0.37500000  1
  V  V1431  1  0.31250000  0.56250000  0.43750000  1
  V  V1432  1  0.31250000  0.56250000  0.50000000  1
  V  V1433  1  0.31250000  0.56250000  0.56250000  1
  V  V1434  1  0.31250000  0.56250000  0.62500000  1
  Ti  Ti1435  1  0.31250000  0.56250000  0.68750000  1
  Cr  Cr1436  1  0.31250000  0.56250000  0.75000000  1
  Ti  Ti1437  1  0.31250000  0.56250000  0.81250000  1
  V  V1438  1  0.31250000  0.56250000  0.87500000  1
  Ti  Ti1439  1  0.31250000  0.56250000  0.93750000  1
  Ti  Ti1440  1  0.31250000  0.62500000  0.00000000  1
  V  V1441  1  0.31250000  0.62500000  0.06250000  1
  Ti  Ti1442  1  0.31250000  0.62500000  0.12500000  1
  V  V1443  1  0.31250000  0.62500000  0.18750000  1
  Ti  Ti1444  1  0.31250000  0.62500000  0.25000000  1
  V  V1445  1  0.31250000  0.62500000  0.31250000  1
  Cr  Cr1446  1  0.31250000  0.62500000  0.37500000  1
  V  V1447  1  0.31250000  0.62500000  0.43750000  1
  V  V1448  1  0.31250000  0.62500000  0.50000000  1
  V  V1449  1  0.31250000  0.62500000  0.56250000  1
  Cr  Cr1450  1  0.31250000  0.62500000  0.62500000  1
  V  V1451  1  0.31250000  0.62500000  0.68750000  1
  Ti  Ti1452  1  0.31250000  0.62500000  0.75000000  1
  V  V1453  1  0.31250000  0.62500000  0.81250000  1
  Ti  Ti1454  1  0.31250000  0.62500000  0.87500000  1
  V  V1455  1  0.31250000  0.62500000  0.93750000  1
  V  V1456  1  0.31250000  0.68750000  0.00000000  1
  Ti  Ti1457  1  0.31250000  0.68750000  0.06250000  1
  V  V1458  1  0.31250000  0.68750000  0.12500000  1
  Ti  Ti1459  1  0.31250000  0.68750000  0.18750000  1
  V  V1460  1  0.31250000  0.68750000  0.25000000  1
  Cr  Cr1461  1  0.31250000  0.68750000  0.31250000  1
  V  V1462  1  0.31250000  0.68750000  0.37500000  1
  V  V1463  1  0.31250000  0.68750000  0.43750000  1
  V  V1464  1  0.31250000  0.68750000  0.50000000  1
  V  V1465  1  0.31250000  0.68750000  0.56250000  1
  V  V1466  1  0.31250000  0.68750000  0.62500000  1
  Ti  Ti1467  1  0.31250000  0.68750000  0.68750000  1
  V  V1468  1  0.31250000  0.68750000  0.75000000  1
  Ti  Ti1469  1  0.31250000  0.68750000  0.81250000  1
  V  V1470  1  0.31250000  0.68750000  0.87500000  1
  Ti  Ti1471  1  0.31250000  0.68750000  0.93750000  1
  Ti  Ti1472  1  0.31250000  0.75000000  0.00000000  1
  V  V1473  1  0.31250000  0.75000000  0.06250000  1
  Ti  Ti1474  1  0.31250000  0.75000000  0.12500000  1
  V  V1475  1  0.31250000  0.75000000  0.18750000  1
  Cr  Cr1476  1  0.31250000  0.75000000  0.25000000  1
  V  V1477  1  0.31250000  0.75000000  0.31250000  1
  V  V1478  1  0.31250000  0.75000000  0.37500000  1
  Cr  Cr1479  1  0.31250000  0.75000000  0.43750000  1
  V  V1480  1  0.31250000  0.75000000  0.50000000  1
  V  V1481  1  0.31250000  0.75000000  0.56250000  1
  V  V1482  1  0.31250000  0.75000000  0.62500000  1
  V  V1483  1  0.31250000  0.75000000  0.68750000  1
  Ti  Ti1484  1  0.31250000  0.75000000  0.75000000  1
  V  V1485  1  0.31250000  0.75000000  0.81250000  1
  Ti  Ti1486  1  0.31250000  0.75000000  0.87500000  1
  V  V1487  1  0.31250000  0.75000000  0.93750000  1
  V  V1488  1  0.31250000  0.81250000  0.00000000  1
  Cr  Cr1489  1  0.31250000  0.81250000  0.06250000  1
  V  V1490  1  0.31250000  0.81250000  0.12500000  1
  Cr  Cr1491  1  0.31250000  0.81250000  0.18750000  1
  V  V1492  1  0.31250000  0.81250000  0.25000000  1
  Cr  Cr1493  1  0.31250000  0.81250000  0.31250000  1
  Cr  Cr1494  1  0.31250000  0.81250000  0.37500000  1
  Cr  Cr1495  1  0.31250000  0.81250000  0.43750000  1
  V  V1496  1  0.31250000  0.81250000  0.50000000  1
  V  V1497  1  0.31250000  0.81250000  0.56250000  1
  Cr  Cr1498  1  0.31250000  0.81250000  0.62500000  1
  Cr  Cr1499  1  0.31250000  0.81250000  0.68750000  1
  V  V1500  1  0.31250000  0.81250000  0.75000000  1
  Ti  Ti1501  1  0.31250000  0.81250000  0.81250000  1
  V  V1502  1  0.31250000  0.81250000  0.87500000  1
  Ti  Ti1503  1  0.31250000  0.81250000  0.93750000  1
  Ti  Ti1504  1  0.31250000  0.87500000  0.00000000  1
  V  V1505  1  0.31250000  0.87500000  0.06250000  1
  Cr  Cr1506  1  0.31250000  0.87500000  0.12500000  1
  V  V1507  1  0.31250000  0.87500000  0.18750000  1
  Cr  Cr1508  1  0.31250000  0.87500000  0.25000000  1
  Cr  Cr1509  1  0.31250000  0.87500000  0.31250000  1
  V  V1510  1  0.31250000  0.87500000  0.37500000  1
  V  V1511  1  0.31250000  0.87500000  0.43750000  1
  V  V1512  1  0.31250000  0.87500000  0.50000000  1
  Cr  Cr1513  1  0.31250000  0.87500000  0.56250000  1
  V  V1514  1  0.31250000  0.87500000  0.62500000  1
  V  V1515  1  0.31250000  0.87500000  0.68750000  1
  Cr  Cr1516  1  0.31250000  0.87500000  0.75000000  1
  V  V1517  1  0.31250000  0.87500000  0.81250000  1
  Ti  Ti1518  1  0.31250000  0.87500000  0.87500000  1
  V  V1519  1  0.31250000  0.87500000  0.93750000  1
  V  V1520  1  0.31250000  0.93750000  0.00000000  1
  Cr  Cr1521  1  0.31250000  0.93750000  0.06250000  1
  V  V1522  1  0.31250000  0.93750000  0.12500000  1
  V  V1523  1  0.31250000  0.93750000  0.18750000  1
  Cr  Cr1524  1  0.31250000  0.93750000  0.25000000  1
  Cr  Cr1525  1  0.31250000  0.93750000  0.31250000  1
  V  V1526  1  0.31250000  0.93750000  0.37500000  1
  Cr  Cr1527  1  0.31250000  0.93750000  0.43750000  1
  Cr  Cr1528  1  0.31250000  0.93750000  0.50000000  1
  Cr  Cr1529  1  0.31250000  0.93750000  0.56250000  1
  Cr  Cr1530  1  0.31250000  0.93750000  0.62500000  1
  V  V1531  1  0.31250000  0.93750000  0.68750000  1
  Cr  Cr1532  1  0.31250000  0.93750000  0.75000000  1
  Cr  Cr1533  1  0.31250000  0.93750000  0.81250000  1
  V  V1534  1  0.31250000  0.93750000  0.87500000  1
  Cr  Cr1535  1  0.31250000  0.93750000  0.93750000  1
  V  V1536  1  0.37500000  0.00000000  0.00000000  1
  V  V1537  1  0.37500000  0.00000000  0.06250000  1
  Cr  Cr1538  1  0.37500000  0.00000000  0.12500000  1
  Cr  Cr1539  1  0.37500000  0.00000000  0.18750000  1
  Cr  Cr1540  1  0.37500000  0.00000000  0.25000000  1
  V  V1541  1  0.37500000  0.00000000  0.31250000  1
  Cr  Cr1542  1  0.37500000  0.00000000  0.37500000  1
  Cr  Cr1543  1  0.37500000  0.00000000  0.43750000  1
  V  V1544  1  0.37500000  0.00000000  0.50000000  1
  Cr  Cr1545  1  0.37500000  0.00000000  0.56250000  1
  Cr  Cr1546  1  0.37500000  0.00000000  0.62500000  1
  Cr  Cr1547  1  0.37500000  0.00000000  0.68750000  1
  V  V1548  1  0.37500000  0.00000000  0.75000000  1
  V  V1549  1  0.37500000  0.00000000  0.81250000  1
  Cr  Cr1550  1  0.37500000  0.00000000  0.87500000  1
  Cr  Cr1551  1  0.37500000  0.00000000  0.93750000  1
  V  V1552  1  0.37500000  0.06250000  0.00000000  1
  Cr  Cr1553  1  0.37500000  0.06250000  0.06250000  1
  Cr  Cr1554  1  0.37500000  0.06250000  0.12500000  1
  V  V1555  1  0.37500000  0.06250000  0.18750000  1
  V  V1556  1  0.37500000  0.06250000  0.25000000  1
  Cr  Cr1557  1  0.37500000  0.06250000  0.31250000  1
  Cr  Cr1558  1  0.37500000  0.06250000  0.37500000  1
  Cr  Cr1559  1  0.37500000  0.06250000  0.43750000  1
  Cr  Cr1560  1  0.37500000  0.06250000  0.50000000  1
  V  V1561  1  0.37500000  0.06250000  0.56250000  1
  Cr  Cr1562  1  0.37500000  0.06250000  0.62500000  1
  V  V1563  1  0.37500000  0.06250000  0.68750000  1
  Cr  Cr1564  1  0.37500000  0.06250000  0.75000000  1
  V  V1565  1  0.37500000  0.06250000  0.81250000  1
  Cr  Cr1566  1  0.37500000  0.06250000  0.87500000  1
  Cr  Cr1567  1  0.37500000  0.06250000  0.93750000  1
  Cr  Cr1568  1  0.37500000  0.12500000  0.00000000  1
  Cr  Cr1569  1  0.37500000  0.12500000  0.06250000  1
  V  V1570  1  0.37500000  0.12500000  0.12500000  1
  V  V1571  1  0.37500000  0.12500000  0.18750000  1
  Cr  Cr1572  1  0.37500000  0.12500000  0.25000000  1
  Cr  Cr1573  1  0.37500000  0.12500000  0.31250000  1
  V  V1574  1  0.37500000  0.12500000  0.37500000  1
  V  V1575  1  0.37500000  0.12500000  0.43750000  1
  Cr  Cr1576  1  0.37500000  0.12500000  0.50000000  1
  Cr  Cr1577  1  0.37500000  0.12500000  0.56250000  1
  V  V1578  1  0.37500000  0.12500000  0.62500000  1
  Cr  Cr1579  1  0.37500000  0.12500000  0.68750000  1
  Cr  Cr1580  1  0.37500000  0.12500000  0.75000000  1
  Cr  Cr1581  1  0.37500000  0.12500000  0.81250000  1
  Cr  Cr1582  1  0.37500000  0.12500000  0.87500000  1
  V  V1583  1  0.37500000  0.12500000  0.93750000  1
  V  V1584  1  0.37500000  0.18750000  0.00000000  1
  Cr  Cr1585  1  0.37500000  0.18750000  0.06250000  1
  V  V1586  1  0.37500000  0.18750000  0.12500000  1
  Cr  Cr1587  1  0.37500000  0.18750000  0.18750000  1
  Cr  Cr1588  1  0.37500000  0.18750000  0.25000000  1
  V  V1589  1  0.37500000  0.18750000  0.31250000  1
  Cr  Cr1590  1  0.37500000  0.18750000  0.37500000  1
  Cr  Cr1591  1  0.37500000  0.18750000  0.43750000  1
  Cr  Cr1592  1  0.37500000  0.18750000  0.50000000  1
  V  V1593  1  0.37500000  0.18750000  0.56250000  1
  V  V1594  1  0.37500000  0.18750000  0.62500000  1
  Cr  Cr1595  1  0.37500000  0.18750000  0.68750000  1
  Cr  Cr1596  1  0.37500000  0.18750000  0.75000000  1
  V  V1597  1  0.37500000  0.18750000  0.81250000  1
  V  V1598  1  0.37500000  0.18750000  0.87500000  1
  V  V1599  1  0.37500000  0.18750000  0.93750000  1
  Cr  Cr1600  1  0.37500000  0.25000000  0.00000000  1
  V  V1601  1  0.37500000  0.25000000  0.06250000  1
  Cr  Cr1602  1  0.37500000  0.25000000  0.12500000  1
  Cr  Cr1603  1  0.37500000  0.25000000  0.18750000  1
  V  V1604  1  0.37500000  0.25000000  0.25000000  1
  V  V1605  1  0.37500000  0.25000000  0.31250000  1
  V  V1606  1  0.37500000  0.25000000  0.37500000  1
  Cr  Cr1607  1  0.37500000  0.25000000  0.43750000  1
  V  V1608  1  0.37500000  0.25000000  0.50000000  1
  Cr  Cr1609  1  0.37500000  0.25000000  0.56250000  1
  Cr  Cr1610  1  0.37500000  0.25000000  0.62500000  1
  Cr  Cr1611  1  0.37500000  0.25000000  0.68750000  1
  Cr  Cr1612  1  0.37500000  0.25000000  0.75000000  1
  V  V1613  1  0.37500000  0.25000000  0.81250000  1
  Cr  Cr1614  1  0.37500000  0.25000000  0.87500000  1
  Cr  Cr1615  1  0.37500000  0.25000000  0.93750000  1
  V  V1616  1  0.37500000  0.31250000  0.00000000  1
  Cr  Cr1617  1  0.37500000  0.31250000  0.06250000  1
  V  V1618  1  0.37500000  0.31250000  0.12500000  1
  V  V1619  1  0.37500000  0.31250000  0.18750000  1
  V  V1620  1  0.37500000  0.31250000  0.25000000  1
  V  V1621  1  0.37500000  0.31250000  0.31250000  1
  V  V1622  1  0.37500000  0.31250000  0.37500000  1
  V  V1623  1  0.37500000  0.31250000  0.43750000  1
  Cr  Cr1624  1  0.37500000  0.31250000  0.50000000  1
  Cr  Cr1625  1  0.37500000  0.31250000  0.56250000  1
  Cr  Cr1626  1  0.37500000  0.31250000  0.62500000  1
  Cr  Cr1627  1  0.37500000  0.31250000  0.68750000  1
  Cr  Cr1628  1  0.37500000  0.31250000  0.75000000  1
  V  V1629  1  0.37500000  0.31250000  0.81250000  1
  Cr  Cr1630  1  0.37500000  0.31250000  0.87500000  1
  Cr  Cr1631  1  0.37500000  0.31250000  0.93750000  1
  V  V1632  1  0.37500000  0.37500000  0.00000000  1
  Cr  Cr1633  1  0.37500000  0.37500000  0.06250000  1
  V  V1634  1  0.37500000  0.37500000  0.12500000  1
  V  V1635  1  0.37500000  0.37500000  0.18750000  1
  V  V1636  1  0.37500000  0.37500000  0.25000000  1
  V  V1637  1  0.37500000  0.37500000  0.31250000  1
  V  V1638  1  0.37500000  0.37500000  0.37500000  1
  V  V1639  1  0.37500000  0.37500000  0.43750000  1
  V  V1640  1  0.37500000  0.37500000  0.50000000  1
  V  V1641  1  0.37500000  0.37500000  0.56250000  1
  V  V1642  1  0.37500000  0.37500000  0.62500000  1
  V  V1643  1  0.37500000  0.37500000  0.68750000  1
  V  V1644  1  0.37500000  0.37500000  0.75000000  1
  Cr  Cr1645  1  0.37500000  0.37500000  0.81250000  1
  V  V1646  1  0.37500000  0.37500000  0.87500000  1
  Cr  Cr1647  1  0.37500000  0.37500000  0.93750000  1
  Ti  Ti1648  1  0.37500000  0.43750000  0.00000000  1
  V  V1649  1  0.37500000  0.43750000  0.06250000  1
  Ti  Ti1650  1  0.37500000  0.43750000  0.12500000  1
  V  V1651  1  0.37500000  0.43750000  0.18750000  1
  V  V1652  1  0.37500000  0.43750000  0.25000000  1
  V  V1653  1  0.37500000  0.43750000  0.31250000  1
  V  V1654  1  0.37500000  0.43750000  0.37500000  1
  V  V1655  1  0.37500000  0.43750000  0.43750000  1
  V  V1656  1  0.37500000  0.43750000  0.50000000  1
  V  V1657  1  0.37500000  0.43750000  0.56250000  1
  V  V1658  1  0.37500000  0.43750000  0.62500000  1
  V  V1659  1  0.37500000  0.43750000  0.68750000  1
  Cr  Cr1660  1  0.37500000  0.43750000  0.75000000  1
  V  V1661  1  0.37500000  0.43750000  0.81250000  1
  Ti  Ti1662  1  0.37500000  0.43750000  0.87500000  1
  V  V1663  1  0.37500000  0.43750000  0.93750000  1
  V  V1664  1  0.37500000  0.50000000  0.00000000  1
  Ti  Ti1665  1  0.37500000  0.50000000  0.06250000  1
  V  V1666  1  0.37500000  0.50000000  0.12500000  1
  Ti  Ti1667  1  0.37500000  0.50000000  0.18750000  1
  V  V1668  1  0.37500000  0.50000000  0.25000000  1
  V  V1669  1  0.37500000  0.50000000  0.31250000  1
  V  V1670  1  0.37500000  0.50000000  0.37500000  1
  V  V1671  1  0.37500000  0.50000000  0.43750000  1
  V  V1672  1  0.37500000  0.50000000  0.50000000  1
  V  V1673  1  0.37500000  0.50000000  0.56250000  1
  V  V1674  1  0.37500000  0.50000000  0.62500000  1
  V  V1675  1  0.37500000  0.50000000  0.68750000  1
  V  V1676  1  0.37500000  0.50000000  0.75000000  1
  Ti  Ti1677  1  0.37500000  0.50000000  0.81250000  1
  V  V1678  1  0.37500000  0.50000000  0.87500000  1
  Ti  Ti1679  1  0.37500000  0.50000000  0.93750000  1
  Ti  Ti1680  1  0.37500000  0.56250000  0.00000000  1
  V  V1681  1  0.37500000  0.56250000  0.06250000  1
  Ti  Ti1682  1  0.37500000  0.56250000  0.12500000  1
  V  V1683  1  0.37500000  0.56250000  0.18750000  1
  Ti  Ti1684  1  0.37500000  0.56250000  0.25000000  1
  V  V1685  1  0.37500000  0.56250000  0.31250000  1
  V  V1686  1  0.37500000  0.56250000  0.37500000  1
  V  V1687  1  0.37500000  0.56250000  0.43750000  1
  V  V1688  1  0.37500000  0.56250000  0.50000000  1
  V  V1689  1  0.37500000  0.56250000  0.56250000  1
  V  V1690  1  0.37500000  0.56250000  0.62500000  1
  V  V1691  1  0.37500000  0.56250000  0.68750000  1
  V  V1692  1  0.37500000  0.56250000  0.75000000  1
  V  V1693  1  0.37500000  0.56250000  0.81250000  1
  Ti  Ti1694  1  0.37500000  0.56250000  0.87500000  1
  V  V1695  1  0.37500000  0.56250000  0.93750000  1
  V  V1696  1  0.37500000  0.62500000  0.00000000  1
  Ti  Ti1697  1  0.37500000  0.62500000  0.06250000  1
  V  V1698  1  0.37500000  0.62500000  0.12500000  1
  Ti  Ti1699  1  0.37500000  0.62500000  0.18750000  1
  V  V1700  1  0.37500000  0.62500000  0.25000000  1
  V  V1701  1  0.37500000  0.62500000  0.31250000  1
  V  V1702  1  0.37500000  0.62500000  0.37500000  1
  V  V1703  1  0.37500000  0.62500000  0.43750000  1
  V  V1704  1  0.37500000  0.62500000  0.50000000  1
  V  V1705  1  0.37500000  0.62500000  0.56250000  1
  V  V1706  1  0.37500000  0.62500000  0.62500000  1
  Cr  Cr1707  1  0.37500000  0.62500000  0.68750000  1
  V  V1708  1  0.37500000  0.62500000  0.75000000  1
  Ti  Ti1709  1  0.37500000  0.62500000  0.81250000  1
  V  V1710  1  0.37500000  0.62500000  0.87500000  1
  Ti  Ti1711  1  0.37500000  0.62500000  0.93750000  1
  Ti  Ti1712  1  0.37500000  0.68750000  0.00000000  1
  V  V1713  1  0.37500000  0.68750000  0.06250000  1
  Ti  Ti1714  1  0.37500000  0.68750000  0.12500000  1
  V  V1715  1  0.37500000  0.68750000  0.18750000  1
  Ti  Ti1716  1  0.37500000  0.68750000  0.25000000  1
  V  V1717  1  0.37500000  0.68750000  0.31250000  1
  V  V1718  1  0.37500000  0.68750000  0.37500000  1
  V  V1719  1  0.37500000  0.68750000  0.43750000  1
  V  V1720  1  0.37500000  0.68750000  0.50000000  1
  V  V1721  1  0.37500000  0.68750000  0.56250000  1
  V  V1722  1  0.37500000  0.68750000  0.62500000  1
  V  V1723  1  0.37500000  0.68750000  0.68750000  1
  Cr  Cr1724  1  0.37500000  0.68750000  0.75000000  1
  V  V1725  1  0.37500000  0.68750000  0.81250000  1
  Ti  Ti1726  1  0.37500000  0.68750000  0.87500000  1
  V  V1727  1  0.37500000  0.68750000  0.93750000  1
  V  V1728  1  0.37500000  0.75000000  0.00000000  1
  Ti  Ti1729  1  0.37500000  0.75000000  0.06250000  1
  V  V1730  1  0.37500000  0.75000000  0.12500000  1
  Ti  Ti1731  1  0.37500000  0.75000000  0.18750000  1
  V  V1732  1  0.37500000  0.75000000  0.25000000  1
  Cr  Cr1733  1  0.37500000  0.75000000  0.31250000  1
  V  V1734  1  0.37500000  0.75000000  0.37500000  1
  V  V1735  1  0.37500000  0.75000000  0.43750000  1
  V  V1736  1  0.37500000  0.75000000  0.50000000  1
  V  V1737  1  0.37500000  0.75000000  0.56250000  1
  V  V1738  1  0.37500000  0.75000000  0.62500000  1
  V  V1739  1  0.37500000  0.75000000  0.68750000  1
  V  V1740  1  0.37500000  0.75000000  0.75000000  1
  Ti  Ti1741  1  0.37500000  0.75000000  0.81250000  1
  V  V1742  1  0.37500000  0.75000000  0.87500000  1
  Ti  Ti1743  1  0.37500000  0.75000000  0.93750000  1
  Ti  Ti1744  1  0.37500000  0.81250000  0.00000000  1
  V  V1745  1  0.37500000  0.81250000  0.06250000  1
  Ti  Ti1746  1  0.37500000  0.81250000  0.12500000  1
  V  V1747  1  0.37500000  0.81250000  0.18750000  1
  Cr  Cr1748  1  0.37500000  0.81250000  0.25000000  1
  V  V1749  1  0.37500000  0.81250000  0.31250000  1
  Cr  Cr1750  1  0.37500000  0.81250000  0.37500000  1
  V  V1751  1  0.37500000  0.81250000  0.43750000  1
  V  V1752  1  0.37500000  0.81250000  0.50000000  1
  V  V1753  1  0.37500000  0.81250000  0.56250000  1
  V  V1754  1  0.37500000  0.81250000  0.62500000  1
  V  V1755  1  0.37500000  0.81250000  0.68750000  1
  V  V1756  1  0.37500000  0.81250000  0.75000000  1
  V  V1757  1  0.37500000  0.81250000  0.81250000  1
  Ti  Ti1758  1  0.37500000  0.81250000  0.87500000  1
  V  V1759  1  0.37500000  0.81250000  0.93750000  1
  V  V1760  1  0.37500000  0.87500000  0.00000000  1
  Ti  Ti1761  1  0.37500000  0.87500000  0.06250000  1
  V  V1762  1  0.37500000  0.87500000  0.12500000  1
  Cr  Cr1763  1  0.37500000  0.87500000  0.18750000  1
  V  V1764  1  0.37500000  0.87500000  0.25000000  1
  Cr  Cr1765  1  0.37500000  0.87500000  0.31250000  1
  V  V1766  1  0.37500000  0.87500000  0.37500000  1
  V  V1767  1  0.37500000  0.87500000  0.43750000  1
  V  V1768  1  0.37500000  0.87500000  0.50000000  1
  Cr  Cr1769  1  0.37500000  0.87500000  0.56250000  1
  Cr  Cr1770  1  0.37500000  0.87500000  0.62500000  1
  V  V1771  1  0.37500000  0.87500000  0.68750000  1
  V  V1772  1  0.37500000  0.87500000  0.75000000  1
  V  V1773  1  0.37500000  0.87500000  0.81250000  1
  V  V1774  1  0.37500000  0.87500000  0.87500000  1
  Ti  Ti1775  1  0.37500000  0.87500000  0.93750000  1
  Cr  Cr1776  1  0.37500000  0.93750000  0.00000000  1
  V  V1777  1  0.37500000  0.93750000  0.06250000  1
  Cr  Cr1778  1  0.37500000  0.93750000  0.12500000  1
  Cr  Cr1779  1  0.37500000  0.93750000  0.18750000  1
  Cr  Cr1780  1  0.37500000  0.93750000  0.25000000  1
  V  V1781  1  0.37500000  0.93750000  0.31250000  1
  Cr  Cr1782  1  0.37500000  0.93750000  0.37500000  1
  Cr  Cr1783  1  0.37500000  0.93750000  0.43750000  1
  Cr  Cr1784  1  0.37500000  0.93750000  0.50000000  1
  V  V1785  1  0.37500000  0.93750000  0.56250000  1
  V  V1786  1  0.37500000  0.93750000  0.62500000  1
  Cr  Cr1787  1  0.37500000  0.93750000  0.68750000  1
  Cr  Cr1788  1  0.37500000  0.93750000  0.75000000  1
  V  V1789  1  0.37500000  0.93750000  0.81250000  1
  Cr  Cr1790  1  0.37500000  0.93750000  0.87500000  1
  V  V1791  1  0.37500000  0.93750000  0.93750000  1
  Cr  Cr1792  1  0.43750000  0.00000000  0.00000000  1
  V  V1793  1  0.43750000  0.00000000  0.06250000  1
  Cr  Cr1794  1  0.43750000  0.00000000  0.12500000  1
  V  V1795  1  0.43750000  0.00000000  0.18750000  1
  V  V1796  1  0.43750000  0.00000000  0.25000000  1
  Cr  Cr1797  1  0.43750000  0.00000000  0.31250000  1
  Cr  Cr1798  1  0.43750000  0.00000000  0.37500000  1
  V  V1799  1  0.43750000  0.00000000  0.43750000  1
  V  V1800  1  0.43750000  0.00000000  0.50000000  1
  Cr  Cr1801  1  0.43750000  0.00000000  0.56250000  1
  V  V1802  1  0.43750000  0.00000000  0.62500000  1
  V  V1803  1  0.43750000  0.00000000  0.68750000  1
  Cr  Cr1804  1  0.43750000  0.00000000  0.75000000  1
  V  V1805  1  0.43750000  0.00000000  0.81250000  1
  V  V1806  1  0.43750000  0.00000000  0.87500000  1
  V  V1807  1  0.43750000  0.00000000  0.93750000  1
  Cr  Cr1808  1  0.43750000  0.06250000  0.00000000  1
  Cr  Cr1809  1  0.43750000  0.06250000  0.06250000  1
  Cr  Cr1810  1  0.43750000  0.06250000  0.12500000  1
  V  V1811  1  0.43750000  0.06250000  0.18750000  1
  Cr  Cr1812  1  0.43750000  0.06250000  0.25000000  1
  Cr  Cr1813  1  0.43750000  0.06250000  0.31250000  1
  V  V1814  1  0.43750000  0.06250000  0.37500000  1
  V  V1815  1  0.43750000  0.06250000  0.43750000  1
  Cr  Cr1816  1  0.43750000  0.06250000  0.50000000  1
  Cr  Cr1817  1  0.43750000  0.06250000  0.56250000  1
  V  V1818  1  0.43750000  0.06250000  0.62500000  1
  V  V1819  1  0.43750000  0.06250000  0.68750000  1
  V  V1820  1  0.43750000  0.06250000  0.75000000  1
  Cr  Cr1821  1  0.43750000  0.06250000  0.81250000  1
  Cr  Cr1822  1  0.43750000  0.06250000  0.87500000  1
  V  V1823  1  0.43750000  0.06250000  0.93750000  1
  Cr  Cr1824  1  0.43750000  0.12500000  0.00000000  1
  V  V1825  1  0.43750000  0.12500000  0.06250000  1
  V  V1826  1  0.43750000  0.12500000  0.12500000  1
  Cr  Cr1827  1  0.43750000  0.12500000  0.18750000  1
  Cr  Cr1828  1  0.43750000  0.12500000  0.25000000  1
  V  V1829  1  0.43750000  0.12500000  0.31250000  1
  Cr  Cr1830  1  0.43750000  0.12500000  0.37500000  1
  Cr  Cr1831  1  0.43750000  0.12500000  0.43750000  1
  Cr  Cr1832  1  0.43750000  0.12500000  0.50000000  1
  V  V1833  1  0.43750000  0.12500000  0.56250000  1
  Cr  Cr1834  1  0.43750000  0.12500000  0.62500000  1
  Cr  Cr1835  1  0.43750000  0.12500000  0.68750000  1
  Cr  Cr1836  1  0.43750000  0.12500000  0.75000000  1
  V  V1837  1  0.43750000  0.12500000  0.81250000  1
  V  V1838  1  0.43750000  0.12500000  0.87500000  1
  Cr  Cr1839  1  0.43750000  0.12500000  0.93750000  1
  Cr  Cr1840  1  0.43750000  0.18750000  0.00000000  1
  V  V1841  1  0.43750000  0.18750000  0.06250000  1
  Cr  Cr1842  1  0.43750000  0.18750000  0.12500000  1
  Cr  Cr1843  1  0.43750000  0.18750000  0.18750000  1
  V  V1844  1  0.43750000  0.18750000  0.25000000  1
  Cr  Cr1845  1  0.43750000  0.18750000  0.31250000  1
  Cr  Cr1846  1  0.43750000  0.18750000  0.37500000  1
  Cr  Cr1847  1  0.43750000  0.18750000  0.43750000  1
  Cr  Cr1848  1  0.43750000  0.18750000  0.50000000  1
  V  V1849  1  0.43750000  0.18750000  0.56250000  1
  Cr  Cr1850  1  0.43750000  0.18750000  0.62500000  1
  Cr  Cr1851  1  0.43750000  0.18750000  0.68750000  1
  V  V1852  1  0.43750000  0.18750000  0.75000000  1
  Cr  Cr1853  1  0.43750000  0.18750000  0.81250000  1
  Cr  Cr1854  1  0.43750000  0.18750000  0.87500000  1
  Cr  Cr1855  1  0.43750000  0.18750000  0.93750000  1
  V  V1856  1  0.43750000  0.25000000  0.00000000  1
  Cr  Cr1857  1  0.43750000  0.25000000  0.06250000  1
  Cr  Cr1858  1  0.43750000  0.25000000  0.12500000  1
  Cr  Cr1859  1  0.43750000  0.25000000  0.18750000  1
  V  V1860  1  0.43750000  0.25000000  0.25000000  1
  V  V1861  1  0.43750000  0.25000000  0.31250000  1
  V  V1862  1  0.43750000  0.25000000  0.37500000  1
  V  V1863  1  0.43750000  0.25000000  0.43750000  1
  V  V1864  1  0.43750000  0.25000000  0.50000000  1
  Cr  Cr1865  1  0.43750000  0.25000000  0.56250000  1
  Cr  Cr1866  1  0.43750000  0.25000000  0.62500000  1
  V  V1867  1  0.43750000  0.25000000  0.68750000  1
  V  V1868  1  0.43750000  0.25000000  0.75000000  1
  Cr  Cr1869  1  0.43750000  0.25000000  0.81250000  1
  Cr  Cr1870  1  0.43750000  0.25000000  0.87500000  1
  Cr  Cr1871  1  0.43750000  0.25000000  0.93750000  1
  V  V1872  1  0.43750000  0.31250000  0.00000000  1
  Cr  Cr1873  1  0.43750000  0.31250000  0.06250000  1
  V  V1874  1  0.43750000  0.31250000  0.12500000  1
  V  V1875  1  0.43750000  0.31250000  0.18750000  1
  V  V1876  1  0.43750000  0.31250000  0.25000000  1
  V  V1877  1  0.43750000  0.31250000  0.31250000  1
  V  V1878  1  0.43750000  0.31250000  0.37500000  1
  V  V1879  1  0.43750000  0.31250000  0.43750000  1
  V  V1880  1  0.43750000  0.31250000  0.50000000  1
  Cr  Cr1881  1  0.43750000  0.31250000  0.56250000  1
  V  V1882  1  0.43750000  0.31250000  0.62500000  1
  V  V1883  1  0.43750000  0.31250000  0.68750000  1
  V  V1884  1  0.43750000  0.31250000  0.75000000  1
  Cr  Cr1885  1  0.43750000  0.31250000  0.81250000  1
  Cr  Cr1886  1  0.43750000  0.31250000  0.87500000  1
  V  V1887  1  0.43750000  0.31250000  0.93750000  1
  Cr  Cr1888  1  0.43750000  0.37500000  0.00000000  1
  Cr  Cr1889  1  0.43750000  0.37500000  0.06250000  1
  V  V1890  1  0.43750000  0.37500000  0.12500000  1
  V  V1891  1  0.43750000  0.37500000  0.18750000  1
  V  V1892  1  0.43750000  0.37500000  0.25000000  1
  V  V1893  1  0.43750000  0.37500000  0.31250000  1
  V  V1894  1  0.43750000  0.37500000  0.37500000  1
  V  V1895  1  0.43750000  0.37500000  0.43750000  1
  V  V1896  1  0.43750000  0.37500000  0.50000000  1
  V  V1897  1  0.43750000  0.37500000  0.56250000  1
  Cr  Cr1898  1  0.43750000  0.37500000  0.62500000  1
  Cr  Cr1899  1  0.43750000  0.37500000  0.68750000  1
  Cr  Cr1900  1  0.43750000  0.37500000  0.75000000  1
  V  V1901  1  0.43750000  0.37500000  0.81250000  1
  Cr  Cr1902  1  0.43750000  0.37500000  0.87500000  1
  V  V1903  1  0.43750000  0.37500000  0.93750000  1
  V  V1904  1  0.43750000  0.43750000  0.00000000  1
  Cr  Cr1905  1  0.43750000  0.43750000  0.06250000  1
  V  V1906  1  0.43750000  0.43750000  0.12500000  1
  V  V1907  1  0.43750000  0.43750000  0.18750000  1
  V  V1908  1  0.43750000  0.43750000  0.25000000  1
  V  V1909  1  0.43750000  0.43750000  0.31250000  1
  V  V1910  1  0.43750000  0.43750000  0.37500000  1
  V  V1911  1  0.43750000  0.43750000  0.43750000  1
  V  V1912  1  0.43750000  0.43750000  0.50000000  1
  V  V1913  1  0.43750000  0.43750000  0.56250000  1
  V  V1914  1  0.43750000  0.43750000  0.62500000  1
  V  V1915  1  0.43750000  0.43750000  0.68750000  1
  Cr  Cr1916  1  0.43750000  0.43750000  0.75000000  1
  Cr  Cr1917  1  0.43750000  0.43750000  0.81250000  1
  V  V1918  1  0.43750000  0.43750000  0.87500000  1
  Cr  Cr1919  1  0.43750000  0.43750000  0.93750000  1
  Ti  Ti1920  1  0.43750000  0.50000000  0.00000000  1
  V  V1921  1  0.43750000  0.50000000  0.06250000  1
  Ti  Ti1922  1  0.43750000  0.50000000  0.12500000  1
  V  V1923  1  0.43750000  0.50000000  0.18750000  1
  V  V1924  1  0.43750000  0.50000000  0.25000000  1
  V  V1925  1  0.43750000  0.50000000  0.31250000  1
  V  V1926  1  0.43750000  0.50000000  0.37500000  1
  V  V1927  1  0.43750000  0.50000000  0.43750000  1
  V  V1928  1  0.43750000  0.50000000  0.50000000  1
  V  V1929  1  0.43750000  0.50000000  0.56250000  1
  V  V1930  1  0.43750000  0.50000000  0.62500000  1
  V  V1931  1  0.43750000  0.50000000  0.68750000  1
  V  V1932  1  0.43750000  0.50000000  0.75000000  1
  V  V1933  1  0.43750000  0.50000000  0.81250000  1
  Ti  Ti1934  1  0.43750000  0.50000000  0.87500000  1
  V  V1935  1  0.43750000  0.50000000  0.93750000  1
  V  V1936  1  0.43750000  0.56250000  0.00000000  1
  Ti  Ti1937  1  0.43750000  0.56250000  0.06250000  1
  V  V1938  1  0.43750000  0.56250000  0.12500000  1
  Ti  Ti1939  1  0.43750000  0.56250000  0.18750000  1
  V  V1940  1  0.43750000  0.56250000  0.25000000  1
  V  V1941  1  0.43750000  0.56250000  0.31250000  1
  V  V1942  1  0.43750000  0.56250000  0.37500000  1
  V  V1943  1  0.43750000  0.56250000  0.43750000  1
  V  V1944  1  0.43750000  0.56250000  0.50000000  1
  V  V1945  1  0.43750000  0.56250000  0.56250000  1
  V  V1946  1  0.43750000  0.56250000  0.62500000  1
  V  V1947  1  0.43750000  0.56250000  0.68750000  1
  V  V1948  1  0.43750000  0.56250000  0.75000000  1
  Cr  Cr1949  1  0.43750000  0.56250000  0.81250000  1
  V  V1950  1  0.43750000  0.56250000  0.87500000  1
  Ti  Ti1951  1  0.43750000  0.56250000  0.93750000  1
  Ti  Ti1952  1  0.43750000  0.62500000  0.00000000  1
  V  V1953  1  0.43750000  0.62500000  0.06250000  1
  Ti  Ti1954  1  0.43750000  0.62500000  0.12500000  1
  V  V1955  1  0.43750000  0.62500000  0.18750000  1
  Cr  Cr1956  1  0.43750000  0.62500000  0.25000000  1
  V  V1957  1  0.43750000  0.62500000  0.31250000  1
  V  V1958  1  0.43750000  0.62500000  0.37500000  1
  V  V1959  1  0.43750000  0.62500000  0.43750000  1
  V  V1960  1  0.43750000  0.62500000  0.50000000  1
  V  V1961  1  0.43750000  0.62500000  0.56250000  1
  V  V1962  1  0.43750000  0.62500000  0.62500000  1
  V  V1963  1  0.43750000  0.62500000  0.68750000  1
  V  V1964  1  0.43750000  0.62500000  0.75000000  1
  V  V1965  1  0.43750000  0.62500000  0.81250000  1
  Ti  Ti1966  1  0.43750000  0.62500000  0.87500000  1
  V  V1967  1  0.43750000  0.62500000  0.93750000  1
  V  V1968  1  0.43750000  0.68750000  0.00000000  1
  Ti  Ti1969  1  0.43750000  0.68750000  0.06250000  1
  V  V1970  1  0.43750000  0.68750000  0.12500000  1
  Ti  Ti1971  1  0.43750000  0.68750000  0.18750000  1
  V  V1972  1  0.43750000  0.68750000  0.25000000  1
  V  V1973  1  0.43750000  0.68750000  0.31250000  1
  V  V1974  1  0.43750000  0.68750000  0.37500000  1
  V  V1975  1  0.43750000  0.68750000  0.43750000  1
  V  V1976  1  0.43750000  0.68750000  0.50000000  1
  V  V1977  1  0.43750000  0.68750000  0.56250000  1
  V  V1978  1  0.43750000  0.68750000  0.62500000  1
  V  V1979  1  0.43750000  0.68750000  0.68750000  1
  V  V1980  1  0.43750000  0.68750000  0.75000000  1
  Ti  Ti1981  1  0.43750000  0.68750000  0.81250000  1
  V  V1982  1  0.43750000  0.68750000  0.87500000  1
  Ti  Ti1983  1  0.43750000  0.68750000  0.93750000  1
  Ti  Ti1984  1  0.43750000  0.75000000  0.00000000  1
  V  V1985  1  0.43750000  0.75000000  0.06250000  1
  Ti  Ti1986  1  0.43750000  0.75000000  0.12500000  1
  V  V1987  1  0.43750000  0.75000000  0.18750000  1
  Ti  Ti1988  1  0.43750000  0.75000000  0.25000000  1
  V  V1989  1  0.43750000  0.75000000  0.31250000  1
  V  V1990  1  0.43750000  0.75000000  0.37500000  1
  V  V1991  1  0.43750000  0.75000000  0.43750000  1
  V  V1992  1  0.43750000  0.75000000  0.50000000  1
  V  V1993  1  0.43750000  0.75000000  0.56250000  1
  V  V1994  1  0.43750000  0.75000000  0.62500000  1
  V  V1995  1  0.43750000  0.75000000  0.68750000  1
  V  V1996  1  0.43750000  0.75000000  0.75000000  1
  V  V1997  1  0.43750000  0.75000000  0.81250000  1
  Ti  Ti1998  1  0.43750000  0.75000000  0.87500000  1
  V  V1999  1  0.43750000  0.75000000  0.93750000  1
  V  V2000  1  0.43750000  0.81250000  0.00000000  1
  Ti  Ti2001  1  0.43750000  0.81250000  0.06250000  1
  V  V2002  1  0.43750000  0.81250000  0.12500000  1
  Ti  Ti2003  1  0.43750000  0.81250000  0.18750000  1
  V  V2004  1  0.43750000  0.81250000  0.25000000  1
  Cr  Cr2005  1  0.43750000  0.81250000  0.31250000  1
  V  V2006  1  0.43750000  0.81250000  0.37500000  1
  V  V2007  1  0.43750000  0.81250000  0.43750000  1
  V  V2008  1  0.43750000  0.81250000  0.50000000  1
  V  V2009  1  0.43750000  0.81250000  0.56250000  1
  V  V2010  1  0.43750000  0.81250000  0.62500000  1
  V  V2011  1  0.43750000  0.81250000  0.68750000  1
  V  V2012  1  0.43750000  0.81250000  0.75000000  1
  V  V2013  1  0.43750000  0.81250000  0.81250000  1
  V  V2014  1  0.43750000  0.81250000  0.87500000  1
  Ti  Ti2015  1  0.43750000  0.81250000  0.93750000  1
  Ti  Ti2016  1  0.43750000  0.87500000  0.00000000  1
  V  V2017  1  0.43750000  0.87500000  0.06250000  1
  Cr  Cr2018  1  0.43750000  0.87500000  0.12500000  1
  V  V2019  1  0.43750000  0.87500000  0.18750000  1
  Cr  Cr2020  1  0.43750000  0.87500000  0.25000000  1
  Cr  Cr2021  1  0.43750000  0.87500000  0.31250000  1
  V  V2022  1  0.43750000  0.87500000  0.37500000  1
  V  V2023  1  0.43750000  0.87500000  0.43750000  1
  V  V2024  1  0.43750000  0.87500000  0.50000000  1
  V  V2025  1  0.43750000  0.87500000  0.56250000  1
  V  V2026  1  0.43750000  0.87500000  0.62500000  1
  V  V2027  1  0.43750000  0.87500000  0.68750000  1
  V  V2028  1  0.43750000  0.87500000  0.75000000  1
  V  V2029  1  0.43750000  0.87500000  0.81250000  1
  V  V2030  1  0.43750000  0.87500000  0.87500000  1
  V  V2031  1  0.43750000  0.87500000  0.93750000  1
  V  V2032  1  0.43750000  0.93750000  0.00000000  1
  Cr  Cr2033  1  0.43750000  0.93750000  0.06250000  1
  V  V2034  1  0.43750000  0.93750000  0.12500000  1
  Cr  Cr2035  1  0.43750000  0.93750000  0.18750000  1
  Cr  Cr2036  1  0.43750000  0.93750000  0.25000000  1
  V  V2037  1  0.43750000  0.93750000  0.31250000  1
  Cr  Cr2038  1  0.43750000  0.93750000  0.37500000  1
  Cr  Cr2039  1  0.43750000  0.93750000  0.43750000  1
  V  V2040  1  0.43750000  0.93750000  0.50000000  1
  V  V2041  1  0.43750000  0.93750000  0.56250000  1
  V  V2042  1  0.43750000  0.93750000  0.62500000  1
  V  V2043  1  0.43750000  0.93750000  0.68750000  1
  V  V2044  1  0.43750000  0.93750000  0.75000000  1
  V  V2045  1  0.43750000  0.93750000  0.81250000  1
  V  V2046  1  0.43750000  0.93750000  0.87500000  1
  Cr  Cr2047  1  0.43750000  0.93750000  0.93750000  1
  V  V2048  1  0.50000000  0.00000000  0.00000000  1
  Cr  Cr2049  1  0.50000000  0.00000000  0.06250000  1
  V  V2050  1  0.50000000  0.00000000  0.12500000  1
  V  V2051  1  0.50000000  0.00000000  0.18750000  1
  Cr  Cr2052  1  0.50000000  0.00000000  0.25000000  1
  Cr  Cr2053  1  0.50000000  0.00000000  0.31250000  1
  Cr  Cr2054  1  0.50000000  0.00000000  0.37500000  1
  V  V2055  1  0.50000000  0.00000000  0.43750000  1
  Cr  Cr2056  1  0.50000000  0.00000000  0.50000000  1
  Cr  Cr2057  1  0.50000000  0.00000000  0.56250000  1
  V  V2058  1  0.50000000  0.00000000  0.62500000  1
  V  V2059  1  0.50000000  0.00000000  0.68750000  1
  V  V2060  1  0.50000000  0.00000000  0.75000000  1
  V  V2061  1  0.50000000  0.00000000  0.81250000  1
  V  V2062  1  0.50000000  0.00000000  0.87500000  1
  Cr  Cr2063  1  0.50000000  0.00000000  0.93750000  1
  V  V2064  1  0.50000000  0.06250000  0.00000000  1
  Cr  Cr2065  1  0.50000000  0.06250000  0.06250000  1
  V  V2066  1  0.50000000  0.06250000  0.12500000  1
  Cr  Cr2067  1  0.50000000  0.06250000  0.18750000  1
  Cr  Cr2068  1  0.50000000  0.06250000  0.25000000  1
  Cr  Cr2069  1  0.50000000  0.06250000  0.31250000  1
  V  V2070  1  0.50000000  0.06250000  0.37500000  1
  Cr  Cr2071  1  0.50000000  0.06250000  0.43750000  1
  Cr  Cr2072  1  0.50000000  0.06250000  0.50000000  1
  Cr  Cr2073  1  0.50000000  0.06250000  0.56250000  1
  V  V2074  1  0.50000000  0.06250000  0.62500000  1
  V  V2075  1  0.50000000  0.06250000  0.68750000  1
  V  V2076  1  0.50000000  0.06250000  0.75000000  1
  V  V2077  1  0.50000000  0.06250000  0.81250000  1
  V  V2078  1  0.50000000  0.06250000  0.87500000  1
  V  V2079  1  0.50000000  0.06250000  0.93750000  1
  Cr  Cr2080  1  0.50000000  0.12500000  0.00000000  1
  V  V2081  1  0.50000000  0.12500000  0.06250000  1
  Cr  Cr2082  1  0.50000000  0.12500000  0.12500000  1
  Cr  Cr2083  1  0.50000000  0.12500000  0.18750000  1
  Cr  Cr2084  1  0.50000000  0.12500000  0.25000000  1
  V  V2085  1  0.50000000  0.12500000  0.31250000  1
  Cr  Cr2086  1  0.50000000  0.12500000  0.37500000  1
  Cr  Cr2087  1  0.50000000  0.12500000  0.43750000  1
  V  V2088  1  0.50000000  0.12500000  0.50000000  1
  V  V2089  1  0.50000000  0.12500000  0.56250000  1
  Cr  Cr2090  1  0.50000000  0.12500000  0.62500000  1
  Cr  Cr2091  1  0.50000000  0.12500000  0.68750000  1
  V  V2092  1  0.50000000  0.12500000  0.75000000  1
  Cr  Cr2093  1  0.50000000  0.12500000  0.81250000  1
  Cr  Cr2094  1  0.50000000  0.12500000  0.87500000  1
  V  V2095  1  0.50000000  0.12500000  0.93750000  1
  V  V2096  1  0.50000000  0.18750000  0.00000000  1
  Cr  Cr2097  1  0.50000000  0.18750000  0.06250000  1
  Cr  Cr2098  1  0.50000000  0.18750000  0.12500000  1
  Cr  Cr2099  1  0.50000000  0.18750000  0.18750000  1
  V  V2100  1  0.50000000  0.18750000  0.25000000  1
  V  V2101  1  0.50000000  0.18750000  0.31250000  1
  V  V2102  1  0.50000000  0.18750000  0.37500000  1
  V  V2103  1  0.50000000  0.18750000  0.43750000  1
  V  V2104  1  0.50000000  0.18750000  0.50000000  1
  Cr  Cr2105  1  0.50000000  0.18750000  0.56250000  1
  Cr  Cr2106  1  0.50000000  0.18750000  0.62500000  1
  V  V2107  1  0.50000000  0.18750000  0.68750000  1
  Cr  Cr2108  1  0.50000000  0.18750000  0.75000000  1
  Cr  Cr2109  1  0.50000000  0.18750000  0.81250000  1
  Cr  Cr2110  1  0.50000000  0.18750000  0.87500000  1
  Cr  Cr2111  1  0.50000000  0.18750000  0.93750000  1
  V  V2112  1  0.50000000  0.25000000  0.00000000  1
  Cr  Cr2113  1  0.50000000  0.25000000  0.06250000  1
  V  V2114  1  0.50000000  0.25000000  0.12500000  1
  V  V2115  1  0.50000000  0.25000000  0.18750000  1
  Cr  Cr2116  1  0.50000000  0.25000000  0.25000000  1
  V  V2117  1  0.50000000  0.25000000  0.31250000  1
  V  V2118  1  0.50000000  0.25000000  0.37500000  1
  V  V2119  1  0.50000000  0.25000000  0.43750000  1
  V  V2120  1  0.50000000  0.25000000  0.50000000  1
  Cr  Cr2121  1  0.50000000  0.25000000  0.56250000  1
  V  V2122  1  0.50000000  0.25000000  0.62500000  1
  V  V2123  1  0.50000000  0.25000000  0.68750000  1
  Cr  Cr2124  1  0.50000000  0.25000000  0.75000000  1
  Cr  Cr2125  1  0.50000000  0.25000000  0.81250000  1
  V  V2126  1  0.50000000  0.25000000  0.87500000  1
  V  V2127  1  0.50000000  0.25000000  0.93750000  1
  Cr  Cr2128  1  0.50000000  0.31250000  0.00000000  1
  V  V2129  1  0.50000000  0.31250000  0.06250000  1
  Cr  Cr2130  1  0.50000000  0.31250000  0.12500000  1
  V  V2131  1  0.50000000  0.31250000  0.18750000  1
  V  V2132  1  0.50000000  0.31250000  0.25000000  1
  V  V2133  1  0.50000000  0.31250000  0.31250000  1
  V  V2134  1  0.50000000  0.31250000  0.37500000  1
  V  V2135  1  0.50000000  0.31250000  0.43750000  1
  V  V2136  1  0.50000000  0.31250000  0.50000000  1
  Cr  Cr2137  1  0.50000000  0.31250000  0.56250000  1
  V  V2138  1  0.50000000  0.31250000  0.62500000  1
  Cr  Cr2139  1  0.50000000  0.31250000  0.68750000  1
  Cr  Cr2140  1  0.50000000  0.31250000  0.75000000  1
  Cr  Cr2141  1  0.50000000  0.31250000  0.81250000  1
  V  V2142  1  0.50000000  0.31250000  0.87500000  1
  Cr  Cr2143  1  0.50000000  0.31250000  0.93750000  1
  Cr  Cr2144  1  0.50000000  0.37500000  0.00000000  1
  V  V2145  1  0.50000000  0.37500000  0.06250000  1
  Cr  Cr2146  1  0.50000000  0.37500000  0.12500000  1
  V  V2147  1  0.50000000  0.37500000  0.18750000  1
  V  V2148  1  0.50000000  0.37500000  0.25000000  1
  V  V2149  1  0.50000000  0.37500000  0.31250000  1
  V  V2150  1  0.50000000  0.37500000  0.37500000  1
  V  V2151  1  0.50000000  0.37500000  0.43750000  1
  V  V2152  1  0.50000000  0.37500000  0.50000000  1
  V  V2153  1  0.50000000  0.37500000  0.56250000  1
  Cr  Cr2154  1  0.50000000  0.37500000  0.62500000  1
  Cr  Cr2155  1  0.50000000  0.37500000  0.68750000  1
  Cr  Cr2156  1  0.50000000  0.37500000  0.75000000  1
  V  V2157  1  0.50000000  0.37500000  0.81250000  1
  Cr  Cr2158  1  0.50000000  0.37500000  0.87500000  1
  V  V2159  1  0.50000000  0.37500000  0.93750000  1
  Cr  Cr2160  1  0.50000000  0.43750000  0.00000000  1
  V  V2161  1  0.50000000  0.43750000  0.06250000  1
  V  V2162  1  0.50000000  0.43750000  0.12500000  1
  V  V2163  1  0.50000000  0.43750000  0.18750000  1
  V  V2164  1  0.50000000  0.43750000  0.25000000  1
  V  V2165  1  0.50000000  0.43750000  0.31250000  1
  V  V2166  1  0.50000000  0.43750000  0.37500000  1
  V  V2167  1  0.50000000  0.43750000  0.43750000  1
  V  V2168  1  0.50000000  0.43750000  0.50000000  1
  V  V2169  1  0.50000000  0.43750000  0.56250000  1
  V  V2170  1  0.50000000  0.43750000  0.62500000  1
  V  V2171  1  0.50000000  0.43750000  0.68750000  1
  V  V2172  1  0.50000000  0.43750000  0.75000000  1
  Cr  Cr2173  1  0.50000000  0.43750000  0.81250000  1
  Cr  Cr2174  1  0.50000000  0.43750000  0.87500000  1
  V  V2175  1  0.50000000  0.43750000  0.93750000  1
  V  V2176  1  0.50000000  0.50000000  0.00000000  1
  Ti  Ti2177  1  0.50000000  0.50000000  0.06250000  1
  V  V2178  1  0.50000000  0.50000000  0.12500000  1
  V  V2179  1  0.50000000  0.50000000  0.18750000  1
  V  V2180  1  0.50000000  0.50000000  0.25000000  1
  V  V2181  1  0.50000000  0.50000000  0.31250000  1
  V  V2182  1  0.50000000  0.50000000  0.37500000  1
  V  V2183  1  0.50000000  0.50000000  0.43750000  1
  V  V2184  1  0.50000000  0.50000000  0.50000000  1
  V  V2185  1  0.50000000  0.50000000  0.56250000  1
  V  V2186  1  0.50000000  0.50000000  0.62500000  1
  V  V2187  1  0.50000000  0.50000000  0.68750000  1
  V  V2188  1  0.50000000  0.50000000  0.75000000  1
  Cr  Cr2189  1  0.50000000  0.50000000  0.81250000  1
  V  V2190  1  0.50000000  0.50000000  0.87500000  1
  Cr  Cr2191  1  0.50000000  0.50000000  0.93750000  1
  Ti  Ti2192  1  0.50000000  0.56250000  0.00000000  1
  V  V2193  1  0.50000000  0.56250000  0.06250000  1
  Ti  Ti2194  1  0.50000000  0.56250000  0.12500000  1
  V  V2195  1  0.50000000  0.56250000  0.18750000  1
  V  V2196  1  0.50000000  0.56250000  0.25000000  1
  V  V2197  1  0.50000000  0.56250000  0.31250000  1
  V  V2198  1  0.50000000  0.56250000  0.37500000  1
  V  V2199  1  0.50000000  0.56250000  0.43750000  1
  V  V2200  1  0.50000000  0.56250000  0.50000000  1
  V  V2201  1  0.50000000  0.56250000  0.56250000  1
  V  V2202  1  0.50000000  0.56250000  0.62500000  1
  V  V2203  1  0.50000000  0.56250000  0.68750000  1
  V  V2204  1  0.50000000  0.56250000  0.75000000  1
  V  V2205  1  0.50000000  0.56250000  0.81250000  1
  Cr  Cr2206  1  0.50000000  0.56250000  0.87500000  1
  V  V2207  1  0.50000000  0.56250000  0.93750000  1
  V  V2208  1  0.50000000  0.62500000  0.00000000  1
  Ti  Ti2209  1  0.50000000  0.62500000  0.06250000  1
  V  V2210  1  0.50000000  0.62500000  0.12500000  1
  Ti  Ti2211  1  0.50000000  0.62500000  0.18750000  1
  V  V2212  1  0.50000000  0.62500000  0.25000000  1
  V  V2213  1  0.50000000  0.62500000  0.31250000  1
  V  V2214  1  0.50000000  0.62500000  0.37500000  1
  V  V2215  1  0.50000000  0.62500000  0.43750000  1
  V  V2216  1  0.50000000  0.62500000  0.50000000  1
  V  V2217  1  0.50000000  0.62500000  0.56250000  1
  V  V2218  1  0.50000000  0.62500000  0.62500000  1
  V  V2219  1  0.50000000  0.62500000  0.68750000  1
  V  V2220  1  0.50000000  0.62500000  0.75000000  1
  V  V2221  1  0.50000000  0.62500000  0.81250000  1
  V  V2222  1  0.50000000  0.62500000  0.87500000  1
  Ti  Ti2223  1  0.50000000  0.62500000  0.93750000  1
  Ti  Ti2224  1  0.50000000  0.68750000  0.00000000  1
  V  V2225  1  0.50000000  0.68750000  0.06250000  1
  Ti  Ti2226  1  0.50000000  0.68750000  0.12500000  1
  V  V2227  1  0.50000000  0.68750000  0.18750000  1
  V  V2228  1  0.50000000  0.68750000  0.25000000  1
  V  V2229  1  0.50000000  0.68750000  0.31250000  1
  V  V2230  1  0.50000000  0.68750000  0.37500000  1
  V  V2231  1  0.50000000  0.68750000  0.43750000  1
  V  V2232  1  0.50000000  0.68750000  0.50000000  1
  V  V2233  1  0.50000000  0.68750000  0.56250000  1
  V  V2234  1  0.50000000  0.68750000  0.62500000  1
  V  V2235  1  0.50000000  0.68750000  0.68750000  1
  V  V2236  1  0.50000000  0.68750000  0.75000000  1
  V  V2237  1  0.50000000  0.68750000  0.81250000  1
  Cr  Cr2238  1  0.50000000  0.68750000  0.87500000  1
  V  V2239  1  0.50000000  0.68750000  0.93750000  1
  V  V2240  1  0.50000000  0.75000000  0.00000000  1
  Ti  Ti2241  1  0.50000000  0.75000000  0.06250000  1
  V  V2242  1  0.50000000  0.75000000  0.12500000  1
  Ti  Ti2243  1  0.50000000  0.75000000  0.18750000  1
  V  V2244  1  0.50000000  0.75000000  0.25000000  1
  V  V2245  1  0.50000000  0.75000000  0.31250000  1
  V  V2246  1  0.50000000  0.75000000  0.37500000  1
  V  V2247  1  0.50000000  0.75000000  0.43750000  1
  V  V2248  1  0.50000000  0.75000000  0.50000000  1
  V  V2249  1  0.50000000  0.75000000  0.56250000  1
  V  V2250  1  0.50000000  0.75000000  0.62500000  1
  V  V2251  1  0.50000000  0.75000000  0.68750000  1
  V  V2252  1  0.50000000  0.75000000  0.75000000  1
  V  V2253  1  0.50000000  0.75000000  0.81250000  1
  V  V2254  1  0.50000000  0.75000000  0.87500000  1
  Ti  Ti2255  1  0.50000000  0.75000000  0.93750000  1
  Ti  Ti2256  1  0.50000000  0.81250000  0.00000000  1
  V  V2257  1  0.50000000  0.81250000  0.06250000  1
  Ti  Ti2258  1  0.50000000  0.81250000  0.12500000  1
  V  V2259  1  0.50000000  0.81250000  0.18750000  1
  Cr  Cr2260  1  0.50000000  0.81250000  0.25000000  1
  V  V2261  1  0.50000000  0.81250000  0.31250000  1
  V  V2262  1  0.50000000  0.81250000  0.37500000  1
  V  V2263  1  0.50000000  0.81250000  0.43750000  1
  V  V2264  1  0.50000000  0.81250000  0.50000000  1
  V  V2265  1  0.50000000  0.81250000  0.56250000  1
  V  V2266  1  0.50000000  0.81250000  0.62500000  1
  V  V2267  1  0.50000000  0.81250000  0.68750000  1
  V  V2268  1  0.50000000  0.81250000  0.75000000  1
  V  V2269  1  0.50000000  0.81250000  0.81250000  1
  V  V2270  1  0.50000000  0.81250000  0.87500000  1
  V  V2271  1  0.50000000  0.81250000  0.93750000  1
  V  V2272  1  0.50000000  0.87500000  0.00000000  1
  Cr  Cr2273  1  0.50000000  0.87500000  0.06250000  1
  V  V2274  1  0.50000000  0.87500000  0.12500000  1
  Cr  Cr2275  1  0.50000000  0.87500000  0.18750000  1
  V  V2276  1  0.50000000  0.87500000  0.25000000  1
  V  V2277  1  0.50000000  0.87500000  0.31250000  1
  V  V2278  1  0.50000000  0.87500000  0.37500000  1
  V  V2279  1  0.50000000  0.87500000  0.43750000  1
  V  V2280  1  0.50000000  0.87500000  0.50000000  1
  V  V2281  1  0.50000000  0.87500000  0.56250000  1
  V  V2282  1  0.50000000  0.87500000  0.62500000  1
  V  V2283  1  0.50000000  0.87500000  0.68750000  1
  V  V2284  1  0.50000000  0.87500000  0.75000000  1
  V  V2285  1  0.50000000  0.87500000  0.81250000  1
  V  V2286  1  0.50000000  0.87500000  0.87500000  1
  V  V2287  1  0.50000000  0.87500000  0.93750000  1
  Cr  Cr2288  1  0.50000000  0.93750000  0.00000000  1
  V  V2289  1  0.50000000  0.93750000  0.06250000  1
  Cr  Cr2290  1  0.50000000  0.93750000  0.12500000  1
  Cr  Cr2291  1  0.50000000  0.93750000  0.18750000  1
  V  V2292  1  0.50000000  0.93750000  0.25000000  1
  Cr  Cr2293  1  0.50000000  0.93750000  0.31250000  1
  V  V2294  1  0.50000000  0.93750000  0.37500000  1
  Cr  Cr2295  1  0.50000000  0.93750000  0.43750000  1
  V  V2296  1  0.50000000  0.93750000  0.50000000  1
  V  V2297  1  0.50000000  0.93750000  0.56250000  1
  V  V2298  1  0.50000000  0.93750000  0.62500000  1
  V  V2299  1  0.50000000  0.93750000  0.68750000  1
  V  V2300  1  0.50000000  0.93750000  0.75000000  1
  V  V2301  1  0.50000000  0.93750000  0.81250000  1
  V  V2302  1  0.50000000  0.93750000  0.87500000  1
  Cr  Cr2303  1  0.50000000  0.93750000  0.93750000  1
  V  V2304  1  0.56250000  0.00000000  0.00000000  1
  Cr  Cr2305  1  0.56250000  0.00000000  0.06250000  1
  V  V2306  1  0.56250000  0.00000000  0.12500000  1
  Cr  Cr2307  1  0.56250000  0.00000000  0.18750000  1
  Cr  Cr2308  1  0.56250000  0.00000000  0.25000000  1
  Cr  Cr2309  1  0.56250000  0.00000000  0.31250000  1
  V  V2310  1  0.56250000  0.00000000  0.37500000  1
  Cr  Cr2311  1  0.56250000  0.00000000  0.43750000  1
  V  V2312  1  0.56250000  0.00000000  0.50000000  1
  V  V2313  1  0.56250000  0.00000000  0.56250000  1
  V  V2314  1  0.56250000  0.00000000  0.62500000  1
  V  V2315  1  0.56250000  0.00000000  0.68750000  1
  V  V2316  1  0.56250000  0.00000000  0.75000000  1
  V  V2317  1  0.56250000  0.00000000  0.81250000  1
  V  V2318  1  0.56250000  0.00000000  0.87500000  1
  V  V2319  1  0.56250000  0.00000000  0.93750000  1
  Cr  Cr2320  1  0.56250000  0.06250000  0.00000000  1
  V  V2321  1  0.56250000  0.06250000  0.06250000  1
  Cr  Cr2322  1  0.56250000  0.06250000  0.12500000  1
  Cr  Cr2323  1  0.56250000  0.06250000  0.18750000  1
  Cr  Cr2324  1  0.56250000  0.06250000  0.25000000  1
  V  V2325  1  0.56250000  0.06250000  0.31250000  1
  Cr  Cr2326  1  0.56250000  0.06250000  0.37500000  1
  Cr  Cr2327  1  0.56250000  0.06250000  0.43750000  1
  Cr  Cr2328  1  0.56250000  0.06250000  0.50000000  1
  V  V2329  1  0.56250000  0.06250000  0.56250000  1
  V  V2330  1  0.56250000  0.06250000  0.62500000  1
  V  V2331  1  0.56250000  0.06250000  0.68750000  1
  V  V2332  1  0.56250000  0.06250000  0.75000000  1
  V  V2333  1  0.56250000  0.06250000  0.81250000  1
  V  V2334  1  0.56250000  0.06250000  0.87500000  1
  Cr  Cr2335  1  0.56250000  0.06250000  0.93750000  1
  V  V2336  1  0.56250000  0.12500000  0.00000000  1
  Cr  Cr2337  1  0.56250000  0.12500000  0.06250000  1
  Cr  Cr2338  1  0.56250000  0.12500000  0.12500000  1
  V  V2339  1  0.56250000  0.12500000  0.18750000  1
  V  V2340  1  0.56250000  0.12500000  0.25000000  1
  Cr  Cr2341  1  0.56250000  0.12500000  0.31250000  1
  Cr  Cr2342  1  0.56250000  0.12500000  0.37500000  1
  V  V2343  1  0.56250000  0.12500000  0.43750000  1
  V  V2344  1  0.56250000  0.12500000  0.50000000  1
  Cr  Cr2345  1  0.56250000  0.12500000  0.56250000  1
  V  V2346  1  0.56250000  0.12500000  0.62500000  1
  V  V2347  1  0.56250000  0.12500000  0.68750000  1
  V  V2348  1  0.56250000  0.12500000  0.75000000  1
  V  V2349  1  0.56250000  0.12500000  0.81250000  1
  V  V2350  1  0.56250000  0.12500000  0.87500000  1
  Cr  Cr2351  1  0.56250000  0.12500000  0.93750000  1
  Cr  Cr2352  1  0.56250000  0.18750000  0.00000000  1
  V  V2353  1  0.56250000  0.18750000  0.06250000  1
  Cr  Cr2354  1  0.56250000  0.18750000  0.12500000  1
  V  V2355  1  0.56250000  0.18750000  0.18750000  1
  Cr  Cr2356  1  0.56250000  0.18750000  0.25000000  1
  Cr  Cr2357  1  0.56250000  0.18750000  0.31250000  1
  V  V2358  1  0.56250000  0.18750000  0.37500000  1
  V  V2359  1  0.56250000  0.18750000  0.43750000  1
  Cr  Cr2360  1  0.56250000  0.18750000  0.50000000  1
  Cr  Cr2361  1  0.56250000  0.18750000  0.56250000  1
  Cr  Cr2362  1  0.56250000  0.18750000  0.62500000  1
  V  V2363  1  0.56250000  0.18750000  0.68750000  1
  Cr  Cr2364  1  0.56250000  0.18750000  0.75000000  1
  Cr  Cr2365  1  0.56250000  0.18750000  0.81250000  1
  V  V2366  1  0.56250000  0.18750000  0.87500000  1
  V  V2367  1  0.56250000  0.18750000  0.93750000  1
  Cr  Cr2368  1  0.56250000  0.25000000  0.00000000  1
  Cr  Cr2369  1  0.56250000  0.25000000  0.06250000  1
  V  V2370  1  0.56250000  0.25000000  0.12500000  1
  Cr  Cr2371  1  0.56250000  0.25000000  0.18750000  1
  V  V2372  1  0.56250000  0.25000000  0.25000000  1
  V  V2373  1  0.56250000  0.25000000  0.31250000  1
  V  V2374  1  0.56250000  0.25000000  0.37500000  1
  V  V2375  1  0.56250000  0.25000000  0.43750000  1
  Cr  Cr2376  1  0.56250000  0.25000000  0.50000000  1
  V  V2377  1  0.56250000  0.25000000  0.56250000  1
  Cr  Cr2378  1  0.56250000  0.25000000  0.62500000  1
  Cr  Cr2379  1  0.56250000  0.25000000  0.68750000  1
  Cr  Cr2380  1  0.56250000  0.25000000  0.75000000  1
  V  V2381  1  0.56250000  0.25000000  0.81250000  1
  V  V2382  1  0.56250000  0.25000000  0.87500000  1
  Cr  Cr2383  1  0.56250000  0.25000000  0.93750000  1
  V  V2384  1  0.56250000  0.31250000  0.00000000  1
  Cr  Cr2385  1  0.56250000  0.31250000  0.06250000  1
  V  V2386  1  0.56250000  0.31250000  0.12500000  1
  V  V2387  1  0.56250000  0.31250000  0.18750000  1
  V  V2388  1  0.56250000  0.31250000  0.25000000  1
  V  V2389  1  0.56250000  0.31250000  0.31250000  1
  V  V2390  1  0.56250000  0.31250000  0.37500000  1
  V  V2391  1  0.56250000  0.31250000  0.43750000  1
  V  V2392  1  0.56250000  0.31250000  0.50000000  1
  Cr  Cr2393  1  0.56250000  0.31250000  0.56250000  1
  V  V2394  1  0.56250000  0.31250000  0.62500000  1
  Cr  Cr2395  1  0.56250000  0.31250000  0.68750000  1
  V  V2396  1  0.56250000  0.31250000  0.75000000  1
  V  V2397  1  0.56250000  0.31250000  0.81250000  1
  Cr  Cr2398  1  0.56250000  0.31250000  0.87500000  1
  Cr  Cr2399  1  0.56250000  0.31250000  0.93750000  1
  V  V2400  1  0.56250000  0.37500000  0.00000000  1
  Cr  Cr2401  1  0.56250000  0.37500000  0.06250000  1
  V  V2402  1  0.56250000  0.37500000  0.12500000  1
  V  V2403  1  0.56250000  0.37500000  0.18750000  1
  V  V2404  1  0.56250000  0.37500000  0.25000000  1
  V  V2405  1  0.56250000  0.37500000  0.31250000  1
  V  V2406  1  0.56250000  0.37500000  0.37500000  1
  V  V2407  1  0.56250000  0.37500000  0.43750000  1
  V  V2408  1  0.56250000  0.37500000  0.50000000  1
  V  V2409  1  0.56250000  0.37500000  0.56250000  1
  V  V2410  1  0.56250000  0.37500000  0.62500000  1
  V  V2411  1  0.56250000  0.37500000  0.68750000  1
  Cr  Cr2412  1  0.56250000  0.37500000  0.75000000  1
  V  V2413  1  0.56250000  0.37500000  0.81250000  1
  Cr  Cr2414  1  0.56250000  0.37500000  0.87500000  1
  V  V2415  1  0.56250000  0.37500000  0.93750000  1
  V  V2416  1  0.56250000  0.43750000  0.00000000  1
  Cr  Cr2417  1  0.56250000  0.43750000  0.06250000  1
  V  V2418  1  0.56250000  0.43750000  0.12500000  1
  V  V2419  1  0.56250000  0.43750000  0.18750000  1
  V  V2420  1  0.56250000  0.43750000  0.25000000  1
  V  V2421  1  0.56250000  0.43750000  0.31250000  1
  V  V2422  1  0.56250000  0.43750000  0.37500000  1
  V  V2423  1  0.56250000  0.43750000  0.43750000  1
  V  V2424  1  0.56250000  0.43750000  0.50000000  1
  V  V2425  1  0.56250000  0.43750000  0.56250000  1
  V  V2426  1  0.56250000  0.43750000  0.62500000  1
  V  V2427  1  0.56250000  0.43750000  0.68750000  1
  V  V2428  1  0.56250000  0.43750000  0.75000000  1
  Cr  Cr2429  1  0.56250000  0.43750000  0.81250000  1
  Cr  Cr2430  1  0.56250000  0.43750000  0.87500000  1
  V  V2431  1  0.56250000  0.43750000  0.93750000  1
  Cr  Cr2432  1  0.56250000  0.50000000  0.00000000  1
  V  V2433  1  0.56250000  0.50000000  0.06250000  1
  V  V2434  1  0.56250000  0.50000000  0.12500000  1
  V  V2435  1  0.56250000  0.50000000  0.18750000  1
  V  V2436  1  0.56250000  0.50000000  0.25000000  1
  V  V2437  1  0.56250000  0.50000000  0.31250000  1
  V  V2438  1  0.56250000  0.50000000  0.37500000  1
  V  V2439  1  0.56250000  0.50000000  0.43750000  1
  V  V2440  1  0.56250000  0.50000000  0.50000000  1
  V  V2441  1  0.56250000  0.50000000  0.56250000  1
  V  V2442  1  0.56250000  0.50000000  0.62500000  1
  V  V2443  1  0.56250000  0.50000000  0.68750000  1
  V  V2444  1  0.56250000  0.50000000  0.75000000  1
  V  V2445  1  0.56250000  0.50000000  0.81250000  1
  V  V2446  1  0.56250000  0.50000000  0.87500000  1
  Cr  Cr2447  1  0.56250000  0.50000000  0.93750000  1
  V  V2448  1  0.56250000  0.56250000  0.00000000  1
  Cr  Cr2449  1  0.56250000  0.56250000  0.06250000  1
  V  V2450  1  0.56250000  0.56250000  0.12500000  1
  V  V2451  1  0.56250000  0.56250000  0.18750000  1
  V  V2452  1  0.56250000  0.56250000  0.25000000  1
  V  V2453  1  0.56250000  0.56250000  0.31250000  1
  V  V2454  1  0.56250000  0.56250000  0.37500000  1
  V  V2455  1  0.56250000  0.56250000  0.43750000  1
  V  V2456  1  0.56250000  0.56250000  0.50000000  1
  V  V2457  1  0.56250000  0.56250000  0.56250000  1
  V  V2458  1  0.56250000  0.56250000  0.62500000  1
  V  V2459  1  0.56250000  0.56250000  0.68750000  1
  V  V2460  1  0.56250000  0.56250000  0.75000000  1
  V  V2461  1  0.56250000  0.56250000  0.81250000  1
  Cr  Cr2462  1  0.56250000  0.56250000  0.87500000  1
  Cr  Cr2463  1  0.56250000  0.56250000  0.93750000  1
  Cr  Cr2464  1  0.56250000  0.62500000  0.00000000  1
  V  V2465  1  0.56250000  0.62500000  0.06250000  1
  Ti  Ti2466  1  0.56250000  0.62500000  0.12500000  1
  V  V2467  1  0.56250000  0.62500000  0.18750000  1
  V  V2468  1  0.56250000  0.62500000  0.25000000  1
  V  V2469  1  0.56250000  0.62500000  0.31250000  1
  V  V2470  1  0.56250000  0.62500000  0.37500000  1
  V  V2471  1  0.56250000  0.62500000  0.43750000  1
  V  V2472  1  0.56250000  0.62500000  0.50000000  1
  V  V2473  1  0.56250000  0.62500000  0.56250000  1
  V  V2474  1  0.56250000  0.62500000  0.62500000  1
  V  V2475  1  0.56250000  0.62500000  0.68750000  1
  V  V2476  1  0.56250000  0.62500000  0.75000000  1
  V  V2477  1  0.56250000  0.62500000  0.81250000  1
  V  V2478  1  0.56250000  0.62500000  0.87500000  1
  V  V2479  1  0.56250000  0.62500000  0.93750000  1
  V  V2480  1  0.56250000  0.68750000  0.00000000  1
  Ti  Ti2481  1  0.56250000  0.68750000  0.06250000  1
  V  V2482  1  0.56250000  0.68750000  0.12500000  1
  Ti  Ti2483  1  0.56250000  0.68750000  0.18750000  1
  V  V2484  1  0.56250000  0.68750000  0.25000000  1
  V  V2485  1  0.56250000  0.68750000  0.31250000  1
  V  V2486  1  0.56250000  0.68750000  0.37500000  1
  V  V2487  1  0.56250000  0.68750000  0.43750000  1
  V  V2488  1  0.56250000  0.68750000  0.50000000  1
  V  V2489  1  0.56250000  0.68750000  0.56250000  1
  V  V2490  1  0.56250000  0.68750000  0.62500000  1
  V  V2491  1  0.56250000  0.68750000  0.68750000  1
  V  V2492  1  0.56250000  0.68750000  0.75000000  1
  V  V2493  1  0.56250000  0.68750000  0.81250000  1
  V  V2494  1  0.56250000  0.68750000  0.87500000  1
  V  V2495  1  0.56250000  0.68750000  0.93750000  1
  Ti  Ti2496  1  0.56250000  0.75000000  0.00000000  1
  V  V2497  1  0.56250000  0.75000000  0.06250000  1
  Ti  Ti2498  1  0.56250000  0.75000000  0.12500000  1
  V  V2499  1  0.56250000  0.75000000  0.18750000  1
  V  V2500  1  0.56250000  0.75000000  0.25000000  1
  V  V2501  1  0.56250000  0.75000000  0.31250000  1
  V  V2502  1  0.56250000  0.75000000  0.37500000  1
  V  V2503  1  0.56250000  0.75000000  0.43750000  1
  V  V2504  1  0.56250000  0.75000000  0.50000000  1
  V  V2505  1  0.56250000  0.75000000  0.56250000  1
  V  V2506  1  0.56250000  0.75000000  0.62500000  1
  V  V2507  1  0.56250000  0.75000000  0.68750000  1
  V  V2508  1  0.56250000  0.75000000  0.75000000  1
  V  V2509  1  0.56250000  0.75000000  0.81250000  1
  V  V2510  1  0.56250000  0.75000000  0.87500000  1
  V  V2511  1  0.56250000  0.75000000  0.93750000  1
  V  V2512  1  0.56250000  0.81250000  0.00000000  1
  Ti  Ti2513  1  0.56250000  0.81250000  0.06250000  1
  V  V2514  1  0.56250000  0.81250000  0.12500000  1
  Ti  Ti2515  1  0.56250000  0.81250000  0.18750000  1
  V  V2516  1  0.56250000  0.81250000  0.25000000  1
  V  V2517  1  0.56250000  0.81250000  0.31250000  1
  V  V2518  1  0.56250000  0.81250000  0.37500000  1
  V  V2519  1  0.56250000  0.81250000  0.43750000  1
  V  V2520  1  0.56250000  0.81250000  0.50000000  1
  V  V2521  1  0.56250000  0.81250000  0.56250000  1
  V  V2522  1  0.56250000  0.81250000  0.62500000  1
  V  V2523  1  0.56250000  0.81250000  0.68750000  1
  V  V2524  1  0.56250000  0.81250000  0.75000000  1
  V  V2525  1  0.56250000  0.81250000  0.81250000  1
  V  V2526  1  0.56250000  0.81250000  0.87500000  1
  Cr  Cr2527  1  0.56250000  0.81250000  0.93750000  1
  Cr  Cr2528  1  0.56250000  0.87500000  0.00000000  1
  V  V2529  1  0.56250000  0.87500000  0.06250000  1
  Cr  Cr2530  1  0.56250000  0.87500000  0.12500000  1
  V  V2531  1  0.56250000  0.87500000  0.18750000  1
  Cr  Cr2532  1  0.56250000  0.87500000  0.25000000  1
  V  V2533  1  0.56250000  0.87500000  0.31250000  1
  V  V2534  1  0.56250000  0.87500000  0.37500000  1
  V  V2535  1  0.56250000  0.87500000  0.43750000  1
  V  V2536  1  0.56250000  0.87500000  0.50000000  1
  V  V2537  1  0.56250000  0.87500000  0.56250000  1
  V  V2538  1  0.56250000  0.87500000  0.62500000  1
  V  V2539  1  0.56250000  0.87500000  0.68750000  1
  V  V2540  1  0.56250000  0.87500000  0.75000000  1
  V  V2541  1  0.56250000  0.87500000  0.81250000  1
  V  V2542  1  0.56250000  0.87500000  0.87500000  1
  V  V2543  1  0.56250000  0.87500000  0.93750000  1
  V  V2544  1  0.56250000  0.93750000  0.00000000  1
  Cr  Cr2545  1  0.56250000  0.93750000  0.06250000  1
  Cr  Cr2546  1  0.56250000  0.93750000  0.12500000  1
  V  V2547  1  0.56250000  0.93750000  0.18750000  1
  Cr  Cr2548  1  0.56250000  0.93750000  0.25000000  1
  V  V2549  1  0.56250000  0.93750000  0.31250000  1
  Cr  Cr2550  1  0.56250000  0.93750000  0.37500000  1
  V  V2551  1  0.56250000  0.93750000  0.43750000  1
  V  V2552  1  0.56250000  0.93750000  0.50000000  1
  V  V2553  1  0.56250000  0.93750000  0.56250000  1
  V  V2554  1  0.56250000  0.93750000  0.62500000  1
  V  V2555  1  0.56250000  0.93750000  0.68750000  1
  V  V2556  1  0.56250000  0.93750000  0.75000000  1
  V  V2557  1  0.56250000  0.93750000  0.81250000  1
  V  V2558  1  0.56250000  0.93750000  0.87500000  1
  V  V2559  1  0.56250000  0.93750000  0.93750000  1
  V  V2560  1  0.62500000  0.00000000  0.00000000  1
  V  V2561  1  0.62500000  0.00000000  0.06250000  1
  Cr  Cr2562  1  0.62500000  0.00000000  0.12500000  1
  Cr  Cr2563  1  0.62500000  0.00000000  0.18750000  1
  Cr  Cr2564  1  0.62500000  0.00000000  0.25000000  1
  V  V2565  1  0.62500000  0.00000000  0.31250000  1
  V  V2566  1  0.62500000  0.00000000  0.37500000  1
  Cr  Cr2567  1  0.62500000  0.00000000  0.43750000  1
  V  V2568  1  0.62500000  0.00000000  0.50000000  1
  V  V2569  1  0.62500000  0.00000000  0.56250000  1
  V  V2570  1  0.62500000  0.00000000  0.62500000  1
  V  V2571  1  0.62500000  0.00000000  0.68750000  1
  V  V2572  1  0.62500000  0.00000000  0.75000000  1
  V  V2573  1  0.62500000  0.00000000  0.81250000  1
  V  V2574  1  0.62500000  0.00000000  0.87500000  1
  V  V2575  1  0.62500000  0.00000000  0.93750000  1
  Cr  Cr2576  1  0.62500000  0.06250000  0.00000000  1
  Cr  Cr2577  1  0.62500000  0.06250000  0.06250000  1
  Cr  Cr2578  1  0.62500000  0.06250000  0.12500000  1
  Cr  Cr2579  1  0.62500000  0.06250000  0.18750000  1
  V  V2580  1  0.62500000  0.06250000  0.25000000  1
  Cr  Cr2581  1  0.62500000  0.06250000  0.31250000  1
  Cr  Cr2582  1  0.62500000  0.06250000  0.37500000  1
  V  V2583  1  0.62500000  0.06250000  0.43750000  1
  Cr  Cr2584  1  0.62500000  0.06250000  0.50000000  1
  V  V2585  1  0.62500000  0.06250000  0.56250000  1
  V  V2586  1  0.62500000  0.06250000  0.62500000  1
  V  V2587  1  0.62500000  0.06250000  0.68750000  1
  V  V2588  1  0.62500000  0.06250000  0.75000000  1
  V  V2589  1  0.62500000  0.06250000  0.81250000  1
  V  V2590  1  0.62500000  0.06250000  0.87500000  1
  V  V2591  1  0.62500000  0.06250000  0.93750000  1
  V  V2592  1  0.62500000  0.12500000  0.00000000  1
  V  V2593  1  0.62500000  0.12500000  0.06250000  1
  V  V2594  1  0.62500000  0.12500000  0.12500000  1
  V  V2595  1  0.62500000  0.12500000  0.18750000  1
  Cr  Cr2596  1  0.62500000  0.12500000  0.25000000  1
  Cr  Cr2597  1  0.62500000  0.12500000  0.31250000  1
  V  V2598  1  0.62500000  0.12500000  0.37500000  1
  Cr  Cr2599  1  0.62500000  0.12500000  0.43750000  1
  V  V2600  1  0.62500000  0.12500000  0.50000000  1
  Cr  Cr2601  1  0.62500000  0.12500000  0.56250000  1
  Cr  Cr2602  1  0.62500000  0.12500000  0.62500000  1
  V  V2603  1  0.62500000  0.12500000  0.68750000  1
  V  V2604  1  0.62500000  0.12500000  0.75000000  1
  V  V2605  1  0.62500000  0.12500000  0.81250000  1
  V  V2606  1  0.62500000  0.12500000  0.87500000  1
  V  V2607  1  0.62500000  0.12500000  0.93750000  1
  Cr  Cr2608  1  0.62500000  0.18750000  0.00000000  1
  Cr  Cr2609  1  0.62500000  0.18750000  0.06250000  1
  V  V2610  1  0.62500000  0.18750000  0.12500000  1
  Cr  Cr2611  1  0.62500000  0.18750000  0.18750000  1
  Cr  Cr2612  1  0.62500000  0.18750000  0.25000000  1
  V  V2613  1  0.62500000  0.18750000  0.31250000  1
  V  V2614  1  0.62500000  0.18750000  0.37500000  1
  V  V2615  1  0.62500000  0.18750000  0.43750000  1
  Cr  Cr2616  1  0.62500000  0.18750000  0.50000000  1
  V  V2617  1  0.62500000  0.18750000  0.56250000  1
  Cr  Cr2618  1  0.62500000  0.18750000  0.62500000  1
  V  V2619  1  0.62500000  0.18750000  0.68750000  1
  V  V2620  1  0.62500000  0.18750000  0.75000000  1
  Cr  Cr2621  1  0.62500000  0.18750000  0.81250000  1
  V  V2622  1  0.62500000  0.18750000  0.87500000  1
  Cr  Cr2623  1  0.62500000  0.18750000  0.93750000  1
  Cr  Cr2624  1  0.62500000  0.25000000  0.00000000  1
  V  V2625  1  0.62500000  0.25000000  0.06250000  1
  Cr  Cr2626  1  0.62500000  0.25000000  0.12500000  1
  Cr  Cr2627  1  0.62500000  0.25000000  0.18750000  1
  Cr  Cr2628  1  0.62500000  0.25000000  0.25000000  1
  V  V2629  1  0.62500000  0.25000000  0.31250000  1
  V  V2630  1  0.62500000  0.25000000  0.37500000  1
  V  V2631  1  0.62500000  0.25000000  0.43750000  1
  V  V2632  1  0.62500000  0.25000000  0.50000000  1
  Cr  Cr2633  1  0.62500000  0.25000000  0.56250000  1
  V  V2634  1  0.62500000  0.25000000  0.62500000  1
  V  V2635  1  0.62500000  0.25000000  0.68750000  1
  V  V2636  1  0.62500000  0.25000000  0.75000000  1
  V  V2637  1  0.62500000  0.25000000  0.81250000  1
  Cr  Cr2638  1  0.62500000  0.25000000  0.87500000  1
  Cr  Cr2639  1  0.62500000  0.25000000  0.93750000  1
  V  V2640  1  0.62500000  0.31250000  0.00000000  1
  V  V2641  1  0.62500000  0.31250000  0.06250000  1
  Cr  Cr2642  1  0.62500000  0.31250000  0.12500000  1
  V  V2643  1  0.62500000  0.31250000  0.18750000  1
  V  V2644  1  0.62500000  0.31250000  0.25000000  1
  V  V2645  1  0.62500000  0.31250000  0.31250000  1
  V  V2646  1  0.62500000  0.31250000  0.37500000  1
  V  V2647  1  0.62500000  0.31250000  0.43750000  1
  V  V2648  1  0.62500000  0.31250000  0.50000000  1
  V  V2649  1  0.62500000  0.31250000  0.56250000  1
  Cr  Cr2650  1  0.62500000  0.31250000  0.62500000  1
  V  V2651  1  0.62500000  0.31250000  0.68750000  1
  V  V2652  1  0.62500000  0.31250000  0.75000000  1
  Cr  Cr2653  1  0.62500000  0.31250000  0.81250000  1
  Cr  Cr2654  1  0.62500000  0.31250000  0.87500000  1
  V  V2655  1  0.62500000  0.31250000  0.93750000  1
  Cr  Cr2656  1  0.62500000  0.37500000  0.00000000  1
  V  V2657  1  0.62500000  0.37500000  0.06250000  1
  Cr  Cr2658  1  0.62500000  0.37500000  0.12500000  1
  V  V2659  1  0.62500000  0.37500000  0.18750000  1
  V  V2660  1  0.62500000  0.37500000  0.25000000  1
  V  V2661  1  0.62500000  0.37500000  0.31250000  1
  V  V2662  1  0.62500000  0.37500000  0.37500000  1
  V  V2663  1  0.62500000  0.37500000  0.43750000  1
  Cr  Cr2664  1  0.62500000  0.37500000  0.50000000  1
  V  V2665  1  0.62500000  0.37500000  0.56250000  1
  V  V2666  1  0.62500000  0.37500000  0.62500000  1
  Cr  Cr2667  1  0.62500000  0.37500000  0.68750000  1
  Cr  Cr2668  1  0.62500000  0.37500000  0.75000000  1
  Cr  Cr2669  1  0.62500000  0.37500000  0.81250000  1
  Cr  Cr2670  1  0.62500000  0.37500000  0.87500000  1
  V  V2671  1  0.62500000  0.37500000  0.93750000  1
  Cr  Cr2672  1  0.62500000  0.43750000  0.00000000  1
  Cr  Cr2673  1  0.62500000  0.43750000  0.06250000  1
  V  V2674  1  0.62500000  0.43750000  0.12500000  1
  V  V2675  1  0.62500000  0.43750000  0.18750000  1
  V  V2676  1  0.62500000  0.43750000  0.25000000  1
  V  V2677  1  0.62500000  0.43750000  0.31250000  1
  V  V2678  1  0.62500000  0.43750000  0.37500000  1
  V  V2679  1  0.62500000  0.43750000  0.43750000  1
  V  V2680  1  0.62500000  0.43750000  0.50000000  1
  V  V2681  1  0.62500000  0.43750000  0.56250000  1
  V  V2682  1  0.62500000  0.43750000  0.62500000  1
  V  V2683  1  0.62500000  0.43750000  0.68750000  1
  V  V2684  1  0.62500000  0.43750000  0.75000000  1
  V  V2685  1  0.62500000  0.43750000  0.81250000  1
  V  V2686  1  0.62500000  0.43750000  0.87500000  1
  Cr  Cr2687  1  0.62500000  0.43750000  0.93750000  1
  Cr  Cr2688  1  0.62500000  0.50000000  0.00000000  1
  V  V2689  1  0.62500000  0.50000000  0.06250000  1
  Cr  Cr2690  1  0.62500000  0.50000000  0.12500000  1
  V  V2691  1  0.62500000  0.50000000  0.18750000  1
  V  V2692  1  0.62500000  0.50000000  0.25000000  1
  V  V2693  1  0.62500000  0.50000000  0.31250000  1
  V  V2694  1  0.62500000  0.50000000  0.37500000  1
  V  V2695  1  0.62500000  0.50000000  0.43750000  1
  V  V2696  1  0.62500000  0.50000000  0.50000000  1
  V  V2697  1  0.62500000  0.50000000  0.56250000  1
  V  V2698  1  0.62500000  0.50000000  0.62500000  1
  V  V2699  1  0.62500000  0.50000000  0.68750000  1
  V  V2700  1  0.62500000  0.50000000  0.75000000  1
  V  V2701  1  0.62500000  0.50000000  0.81250000  1
  V  V2702  1  0.62500000  0.50000000  0.87500000  1
  Cr  Cr2703  1  0.62500000  0.50000000  0.93750000  1
  V  V2704  1  0.62500000  0.56250000  0.00000000  1
  Cr  Cr2705  1  0.62500000  0.56250000  0.06250000  1
  Cr  Cr2706  1  0.62500000  0.56250000  0.12500000  1
  V  V2707  1  0.62500000  0.56250000  0.18750000  1
  V  V2708  1  0.62500000  0.56250000  0.25000000  1
  V  V2709  1  0.62500000  0.56250000  0.31250000  1
  V  V2710  1  0.62500000  0.56250000  0.37500000  1
  V  V2711  1  0.62500000  0.56250000  0.43750000  1
  V  V2712  1  0.62500000  0.56250000  0.50000000  1
  V  V2713  1  0.62500000  0.56250000  0.56250000  1
  V  V2714  1  0.62500000  0.56250000  0.62500000  1
  V  V2715  1  0.62500000  0.56250000  0.68750000  1
  V  V2716  1  0.62500000  0.56250000  0.75000000  1
  V  V2717  1  0.62500000  0.56250000  0.81250000  1
  V  V2718  1  0.62500000  0.56250000  0.87500000  1
  Cr  Cr2719  1  0.62500000  0.56250000  0.93750000  1
  Cr  Cr2720  1  0.62500000  0.62500000  0.00000000  1
  Cr  Cr2721  1  0.62500000  0.62500000  0.06250000  1
  V  V2722  1  0.62500000  0.62500000  0.12500000  1
  Cr  Cr2723  1  0.62500000  0.62500000  0.18750000  1
  V  V2724  1  0.62500000  0.62500000  0.25000000  1
  V  V2725  1  0.62500000  0.62500000  0.31250000  1
  V  V2726  1  0.62500000  0.62500000  0.37500000  1
  V  V2727  1  0.62500000  0.62500000  0.43750000  1
  V  V2728  1  0.62500000  0.62500000  0.50000000  1
  V  V2729  1  0.62500000  0.62500000  0.56250000  1
  V  V2730  1  0.62500000  0.62500000  0.62500000  1
  V  V2731  1  0.62500000  0.62500000  0.68750000  1
  V  V2732  1  0.62500000  0.62500000  0.75000000  1
  V  V2733  1  0.62500000  0.62500000  0.81250000  1
  V  V2734  1  0.62500000  0.62500000  0.87500000  1
  V  V2735  1  0.62500000  0.62500000  0.93750000  1
  V  V2736  1  0.62500000  0.68750000  0.00000000  1
  V  V2737  1  0.62500000  0.68750000  0.06250000  1
  Cr  Cr2738  1  0.62500000  0.68750000  0.12500000  1
  V  V2739  1  0.62500000  0.68750000  0.18750000  1
  V  V2740  1  0.62500000  0.68750000  0.25000000  1
  V  V2741  1  0.62500000  0.68750000  0.31250000  1
  V  V2742  1  0.62500000  0.68750000  0.37500000  1
  V  V2743  1  0.62500000  0.68750000  0.43750000  1
  V  V2744  1  0.62500000  0.68750000  0.50000000  1
  V  V2745  1  0.62500000  0.68750000  0.56250000  1
  V  V2746  1  0.62500000  0.68750000  0.62500000  1
  V  V2747  1  0.62500000  0.68750000  0.68750000  1
  V  V2748  1  0.62500000  0.68750000  0.75000000  1
  V  V2749  1  0.62500000  0.68750000  0.81250000  1
  V  V2750  1  0.62500000  0.68750000  0.87500000  1
  V  V2751  1  0.62500000  0.68750000  0.93750000  1
  V  V2752  1  0.62500000  0.75000000  0.00000000  1
  Cr  Cr2753  1  0.62500000  0.75000000  0.06250000  1
  V  V2754  1  0.62500000  0.75000000  0.12500000  1
  Cr  Cr2755  1  0.62500000  0.75000000  0.18750000  1
  V  V2756  1  0.62500000  0.75000000  0.25000000  1
  V  V2757  1  0.62500000  0.75000000  0.31250000  1
  V  V2758  1  0.62500000  0.75000000  0.37500000  1
  V  V2759  1  0.62500000  0.75000000  0.43750000  1
  V  V2760  1  0.62500000  0.75000000  0.50000000  1
  V  V2761  1  0.62500000  0.75000000  0.56250000  1
  V  V2762  1  0.62500000  0.75000000  0.62500000  1
  V  V2763  1  0.62500000  0.75000000  0.68750000  1
  V  V2764  1  0.62500000  0.75000000  0.75000000  1
  V  V2765  1  0.62500000  0.75000000  0.81250000  1
  V  V2766  1  0.62500000  0.75000000  0.87500000  1
  V  V2767  1  0.62500000  0.75000000  0.93750000  1
  Cr  Cr2768  1  0.62500000  0.81250000  0.00000000  1
  V  V2769  1  0.62500000  0.81250000  0.06250000  1
  Cr  Cr2770  1  0.62500000  0.81250000  0.12500000  1
  V  V2771  1  0.62500000  0.81250000  0.18750000  1
  Cr  Cr2772  1  0.62500000  0.81250000  0.25000000  1
  V  V2773  1  0.62500000  0.81250000  0.31250000  1
  V  V2774  1  0.62500000  0.81250000  0.37500000  1
  V  V2775  1  0.62500000  0.81250000  0.43750000  1
  V  V2776  1  0.62500000  0.81250000  0.50000000  1
  V  V2777  1  0.62500000  0.81250000  0.56250000  1
  V  V2778  1  0.62500000  0.81250000  0.62500000  1
  V  V2779  1  0.62500000  0.81250000  0.68750000  1
  V  V2780  1  0.62500000  0.81250000  0.75000000  1
  V  V2781  1  0.62500000  0.81250000  0.81250000  1
  V  V2782  1  0.62500000  0.81250000  0.87500000  1
  V  V2783  1  0.62500000  0.81250000  0.93750000  1
  V  V2784  1  0.62500000  0.87500000  0.00000000  1
  Cr  Cr2785  1  0.62500000  0.87500000  0.06250000  1
  V  V2786  1  0.62500000  0.87500000  0.12500000  1
  V  V2787  1  0.62500000  0.87500000  0.18750000  1
  V  V2788  1  0.62500000  0.87500000  0.25000000  1
  V  V2789  1  0.62500000  0.87500000  0.31250000  1
  V  V2790  1  0.62500000  0.87500000  0.37500000  1
  V  V2791  1  0.62500000  0.87500000  0.43750000  1
  V  V2792  1  0.62500000  0.87500000  0.50000000  1
  V  V2793  1  0.62500000  0.87500000  0.56250000  1
  V  V2794  1  0.62500000  0.87500000  0.62500000  1
  V  V2795  1  0.62500000  0.87500000  0.68750000  1
  V  V2796  1  0.62500000  0.87500000  0.75000000  1
  V  V2797  1  0.62500000  0.87500000  0.81250000  1
  V  V2798  1  0.62500000  0.87500000  0.87500000  1
  V  V2799  1  0.62500000  0.87500000  0.93750000  1
  V  V2800  1  0.62500000  0.93750000  0.00000000  1
  V  V2801  1  0.62500000  0.93750000  0.06250000  1
  V  V2802  1  0.62500000  0.93750000  0.12500000  1
  V  V2803  1  0.62500000  0.93750000  0.18750000  1
  Cr  Cr2804  1  0.62500000  0.93750000  0.25000000  1
  V  V2805  1  0.62500000  0.93750000  0.31250000  1
  V  V2806  1  0.62500000  0.93750000  0.37500000  1
  V  V2807  1  0.62500000  0.93750000  0.43750000  1
  V  V2808  1  0.62500000  0.93750000  0.50000000  1
  V  V2809  1  0.62500000  0.93750000  0.56250000  1
  V  V2810  1  0.62500000  0.93750000  0.62500000  1
  V  V2811  1  0.62500000  0.93750000  0.68750000  1
  V  V2812  1  0.62500000  0.93750000  0.75000000  1
  V  V2813  1  0.62500000  0.93750000  0.81250000  1
  V  V2814  1  0.62500000  0.93750000  0.87500000  1
  V  V2815  1  0.62500000  0.93750000  0.93750000  1
  V  V2816  1  0.68750000  0.00000000  0.00000000  1
  V  V2817  1  0.68750000  0.00000000  0.06250000  1
  Cr  Cr2818  1  0.68750000  0.00000000  0.12500000  1
  Cr  Cr2819  1  0.68750000  0.00000000  0.18750000  1
  V  V2820  1  0.68750000  0.00000000  0.25000000  1
  V  V2821  1  0.68750000  0.00000000  0.31250000  1
  Cr  Cr2822  1  0.68750000  0.00000000  0.37500000  1
  V  V2823  1  0.68750000  0.00000000  0.43750000  1
  V  V2824  1  0.68750000  0.00000000  0.50000000  1
  V  V2825  1  0.68750000  0.00000000  0.56250000  1
  V  V2826  1  0.68750000  0.00000000  0.62500000  1
  V  V2827  1  0.68750000  0.00000000  0.68750000  1
  V  V2828  1  0.68750000  0.00000000  0.75000000  1
  V  V2829  1  0.68750000  0.00000000  0.81250000  1
  V  V2830  1  0.68750000  0.00000000  0.87500000  1
  V  V2831  1  0.68750000  0.00000000  0.93750000  1
  V  V2832  1  0.68750000  0.06250000  0.00000000  1
  V  V2833  1  0.68750000  0.06250000  0.06250000  1
  V  V2834  1  0.68750000  0.06250000  0.12500000  1
  Cr  Cr2835  1  0.68750000  0.06250000  0.18750000  1
  V  V2836  1  0.68750000  0.06250000  0.25000000  1
  Cr  Cr2837  1  0.68750000  0.06250000  0.31250000  1
  V  V2838  1  0.68750000  0.06250000  0.37500000  1
  Ti  Ti2839  1  0.68750000  0.06250000  0.43750000  1
  V  V2840  1  0.68750000  0.06250000  0.50000000  1
  Cr  Cr2841  1  0.68750000  0.06250000  0.56250000  1
  V  V2842  1  0.68750000  0.06250000  0.62500000  1
  V  V2843  1  0.68750000  0.06250000  0.68750000  1
  V  V2844  1  0.68750000  0.06250000  0.75000000  1
  V  V2845  1  0.68750000  0.06250000  0.81250000  1
  V  V2846  1  0.68750000  0.06250000  0.87500000  1
  V  V2847  1  0.68750000  0.06250000  0.93750000  1
  Cr  Cr2848  1  0.68750000  0.12500000  0.00000000  1
  Cr  Cr2849  1  0.68750000  0.12500000  0.06250000  1
  Cr  Cr2850  1  0.68750000  0.12500000  0.12500000  1
  V  V2851  1  0.68750000  0.12500000  0.18750000  1
  Cr  Cr2852  1  0.68750000  0.12500000  0.25000000  1
  V  V2853  1  0.68750000  0.12500000  0.31250000  1
  Cr  Cr2854  1  0.68750000  0.12500000  0.37500000  1
  V  V2855  1  0.68750000  0.12500000  0.43750000  1
  Ti  Ti2856  1  0.68750000  0.12500000  0.50000000  1
  V  V2857  1  0.68750000  0.12500000  0.56250000  1
  V  V2858  1  0.68750000  0.12500000  0.62500000  1
  V  V2859  1  0.68750000  0.12500000  0.68750000  1
  V  V2860  1  0.68750000  0.12500000  0.75000000  1
  V  V2861  1  0.68750000  0.12500000  0.81250000  1
  V  V2862  1  0.68750000  0.12500000  0.87500000  1
  V  V2863  1  0.68750000  0.12500000  0.93750000  1
  Cr  Cr2864  1  0.68750000  0.18750000  0.00000000  1
  Cr  Cr2865  1  0.68750000  0.18750000  0.06250000  1
  V  V2866  1  0.68750000  0.18750000  0.12500000  1
  Cr  Cr2867  1  0.68750000  0.18750000  0.18750000  1
  Cr  Cr2868  1  0.68750000  0.18750000  0.25000000  1
  V  V2869  1  0.68750000  0.18750000  0.31250000  1
  V  V2870  1  0.68750000  0.18750000  0.37500000  1
  Ti  Ti2871  1  0.68750000  0.18750000  0.43750000  1
  V  V2872  1  0.68750000  0.18750000  0.50000000  1
  Ti  Ti2873  1  0.68750000  0.18750000  0.56250000  1
  V  V2874  1  0.68750000  0.18750000  0.62500000  1
  V  V2875  1  0.68750000  0.18750000  0.68750000  1
  V  V2876  1  0.68750000  0.18750000  0.75000000  1
  Cr  Cr2877  1  0.68750000  0.18750000  0.81250000  1
  Cr  Cr2878  1  0.68750000  0.18750000  0.87500000  1
  Cr  Cr2879  1  0.68750000  0.18750000  0.93750000  1
  V  V2880  1  0.68750000  0.25000000  0.00000000  1
  V  V2881  1  0.68750000  0.25000000  0.06250000  1
  Cr  Cr2882  1  0.68750000  0.25000000  0.12500000  1
  Cr  Cr2883  1  0.68750000  0.25000000  0.18750000  1
  V  V2884  1  0.68750000  0.25000000  0.25000000  1
  Cr  Cr2885  1  0.68750000  0.25000000  0.31250000  1
  Cr  Cr2886  1  0.68750000  0.25000000  0.37500000  1
  V  V2887  1  0.68750000  0.25000000  0.43750000  1
  Ti  Ti2888  1  0.68750000  0.25000000  0.50000000  1
  V  V2889  1  0.68750000  0.25000000  0.56250000  1
  Ti  Ti2890  1  0.68750000  0.25000000  0.62500000  1
  V  V2891  1  0.68750000  0.25000000  0.68750000  1
  V  V2892  1  0.68750000  0.25000000  0.75000000  1
  V  V2893  1  0.68750000  0.25000000  0.81250000  1
  Cr  Cr2894  1  0.68750000  0.25000000  0.87500000  1
  Cr  Cr2895  1  0.68750000  0.25000000  0.93750000  1
  V  V2896  1  0.68750000  0.31250000  0.00000000  1
  Cr  Cr2897  1  0.68750000  0.31250000  0.06250000  1
  Cr  Cr2898  1  0.68750000  0.31250000  0.12500000  1
  V  V2899  1  0.68750000  0.31250000  0.18750000  1
  Cr  Cr2900  1  0.68750000  0.31250000  0.25000000  1
  Cr  Cr2901  1  0.68750000  0.31250000  0.31250000  1
  V  V2902  1  0.68750000  0.31250000  0.37500000  1
  V  V2903  1  0.68750000  0.31250000  0.43750000  1
  V  V2904  1  0.68750000  0.31250000  0.50000000  1
  Ti  Ti2905  1  0.68750000  0.31250000  0.56250000  1
  V  V2906  1  0.68750000  0.31250000  0.62500000  1
  Ti  Ti2907  1  0.68750000  0.31250000  0.68750000  1
  V  V2908  1  0.68750000  0.31250000  0.75000000  1
  Cr  Cr2909  1  0.68750000  0.31250000  0.81250000  1
  Cr  Cr2910  1  0.68750000  0.31250000  0.87500000  1
  V  V2911  1  0.68750000  0.31250000  0.93750000  1
  Cr  Cr2912  1  0.68750000  0.37500000  0.00000000  1
  Cr  Cr2913  1  0.68750000  0.37500000  0.06250000  1
  V  V2914  1  0.68750000  0.37500000  0.12500000  1
  V  V2915  1  0.68750000  0.37500000  0.18750000  1
  V  V2916  1  0.68750000  0.37500000  0.25000000  1
  V  V2917  1  0.68750000  0.37500000  0.31250000  1
  V  V2918  1  0.68750000  0.37500000  0.37500000  1
  V  V2919  1  0.68750000  0.37500000  0.43750000  1
  V  V2920  1  0.68750000  0.37500000  0.50000000  1
  V  V2921  1  0.68750000  0.37500000  0.56250000  1
  Cr  Cr2922  1  0.68750000  0.37500000  0.62500000  1
  V  V2923  1  0.68750000  0.37500000  0.68750000  1
  Cr  Cr2924  1  0.68750000  0.37500000  0.75000000  1
  V  V2925  1  0.68750000  0.37500000  0.81250000  1
  V  V2926  1  0.68750000  0.37500000  0.87500000  1
  Cr  Cr2927  1  0.68750000  0.37500000  0.93750000  1
  Cr  Cr2928  1  0.68750000  0.43750000  0.00000000  1
  V  V2929  1  0.68750000  0.43750000  0.06250000  1
  Cr  Cr2930  1  0.68750000  0.43750000  0.12500000  1
  V  V2931  1  0.68750000  0.43750000  0.18750000  1
  V  V2932  1  0.68750000  0.43750000  0.25000000  1
  V  V2933  1  0.68750000  0.43750000  0.31250000  1
  V  V2934  1  0.68750000  0.43750000  0.37500000  1
  V  V2935  1  0.68750000  0.43750000  0.43750000  1
  V  V2936  1  0.68750000  0.43750000  0.50000000  1
  V  V2937  1  0.68750000  0.43750000  0.56250000  1
  V  V2938  1  0.68750000  0.43750000  0.62500000  1
  V  V2939  1  0.68750000  0.43750000  0.68750000  1
  Cr  Cr2940  1  0.68750000  0.43750000  0.75000000  1
  V  V2941  1  0.68750000  0.43750000  0.81250000  1
  Cr  Cr2942  1  0.68750000  0.43750000  0.87500000  1
  Cr  Cr2943  1  0.68750000  0.43750000  0.93750000  1
  V  V2944  1  0.68750000  0.50000000  0.00000000  1
  Cr  Cr2945  1  0.68750000  0.50000000  0.06250000  1
  V  V2946  1  0.68750000  0.50000000  0.12500000  1
  Cr  Cr2947  1  0.68750000  0.50000000  0.18750000  1
  V  V2948  1  0.68750000  0.50000000  0.25000000  1
  V  V2949  1  0.68750000  0.50000000  0.31250000  1
  V  V2950  1  0.68750000  0.50000000  0.37500000  1
  V  V2951  1  0.68750000  0.50000000  0.43750000  1
  V  V2952  1  0.68750000  0.50000000  0.50000000  1
  V  V2953  1  0.68750000  0.50000000  0.56250000  1
  V  V2954  1  0.68750000  0.50000000  0.62500000  1
  V  V2955  1  0.68750000  0.50000000  0.68750000  1
  V  V2956  1  0.68750000  0.50000000  0.75000000  1
  Cr  Cr2957  1  0.68750000  0.50000000  0.81250000  1
  V  V2958  1  0.68750000  0.50000000  0.87500000  1
  V  V2959  1  0.68750000  0.50000000  0.93750000  1
  Cr  Cr2960  1  0.68750000  0.56250000  0.00000000  1
  Cr  Cr2961  1  0.68750000  0.56250000  0.06250000  1
  V  V2962  1  0.68750000  0.56250000  0.12500000  1
  V  V2963  1  0.68750000  0.56250000  0.18750000  1
  V  V2964  1  0.68750000  0.56250000  0.25000000  1
  V  V2965  1  0.68750000  0.56250000  0.31250000  1
  V  V2966  1  0.68750000  0.56250000  0.37500000  1
  V  V2967  1  0.68750000  0.56250000  0.43750000  1
  V  V2968  1  0.68750000  0.56250000  0.50000000  1
  V  V2969  1  0.68750000  0.56250000  0.56250000  1
  V  V2970  1  0.68750000  0.56250000  0.62500000  1
  V  V2971  1  0.68750000  0.56250000  0.68750000  1
  V  V2972  1  0.68750000  0.56250000  0.75000000  1
  V  V2973  1  0.68750000  0.56250000  0.81250000  1
  V  V2974  1  0.68750000  0.56250000  0.87500000  1
  Cr  Cr2975  1  0.68750000  0.56250000  0.93750000  1
  Cr  Cr2976  1  0.68750000  0.62500000  0.00000000  1
  Cr  Cr2977  1  0.68750000  0.62500000  0.06250000  1
  V  V2978  1  0.68750000  0.62500000  0.12500000  1
  V  V2979  1  0.68750000  0.62500000  0.18750000  1
  V  V2980  1  0.68750000  0.62500000  0.25000000  1
  V  V2981  1  0.68750000  0.62500000  0.31250000  1
  V  V2982  1  0.68750000  0.62500000  0.37500000  1
  V  V2983  1  0.68750000  0.62500000  0.43750000  1
  V  V2984  1  0.68750000  0.62500000  0.50000000  1
  V  V2985  1  0.68750000  0.62500000  0.56250000  1
  V  V2986  1  0.68750000  0.62500000  0.62500000  1
  V  V2987  1  0.68750000  0.62500000  0.68750000  1
  V  V2988  1  0.68750000  0.62500000  0.75000000  1
  V  V2989  1  0.68750000  0.62500000  0.81250000  1
  V  V2990  1  0.68750000  0.62500000  0.87500000  1
  V  V2991  1  0.68750000  0.62500000  0.93750000  1
  Cr  Cr2992  1  0.68750000  0.68750000  0.00000000  1
  V  V2993  1  0.68750000  0.68750000  0.06250000  1
  Cr  Cr2994  1  0.68750000  0.68750000  0.12500000  1
  Cr  Cr2995  1  0.68750000  0.68750000  0.18750000  1
  V  V2996  1  0.68750000  0.68750000  0.25000000  1
  V  V2997  1  0.68750000  0.68750000  0.31250000  1
  V  V2998  1  0.68750000  0.68750000  0.37500000  1
  V  V2999  1  0.68750000  0.68750000  0.43750000  1
  V  V3000  1  0.68750000  0.68750000  0.50000000  1
  V  V3001  1  0.68750000  0.68750000  0.56250000  1
  V  V3002  1  0.68750000  0.68750000  0.62500000  1
  V  V3003  1  0.68750000  0.68750000  0.68750000  1
  V  V3004  1  0.68750000  0.68750000  0.75000000  1
  V  V3005  1  0.68750000  0.68750000  0.81250000  1
  V  V3006  1  0.68750000  0.68750000  0.87500000  1
  V  V3007  1  0.68750000  0.68750000  0.93750000  1
  Cr  Cr3008  1  0.68750000  0.75000000  0.00000000  1
  Cr  Cr3009  1  0.68750000  0.75000000  0.06250000  1
  V  V3010  1  0.68750000  0.75000000  0.12500000  1
  Cr  Cr3011  1  0.68750000  0.75000000  0.18750000  1
  V  V3012  1  0.68750000  0.75000000  0.25000000  1
  V  V3013  1  0.68750000  0.75000000  0.31250000  1
  V  V3014  1  0.68750000  0.75000000  0.37500000  1
  V  V3015  1  0.68750000  0.75000000  0.43750000  1
  V  V3016  1  0.68750000  0.75000000  0.50000000  1
  V  V3017  1  0.68750000  0.75000000  0.56250000  1
  V  V3018  1  0.68750000  0.75000000  0.62500000  1
  V  V3019  1  0.68750000  0.75000000  0.68750000  1
  V  V3020  1  0.68750000  0.75000000  0.75000000  1
  V  V3021  1  0.68750000  0.75000000  0.81250000  1
  V  V3022  1  0.68750000  0.75000000  0.87500000  1
  V  V3023  1  0.68750000  0.75000000  0.93750000  1
  Cr  Cr3024  1  0.68750000  0.81250000  0.00000000  1
  Cr  Cr3025  1  0.68750000  0.81250000  0.06250000  1
  V  V3026  1  0.68750000  0.81250000  0.12500000  1
  Cr  Cr3027  1  0.68750000  0.81250000  0.18750000  1
  V  V3028  1  0.68750000  0.81250000  0.25000000  1
  V  V3029  1  0.68750000  0.81250000  0.31250000  1
  V  V3030  1  0.68750000  0.81250000  0.37500000  1
  V  V3031  1  0.68750000  0.81250000  0.43750000  1
  V  V3032  1  0.68750000  0.81250000  0.50000000  1
  V  V3033  1  0.68750000  0.81250000  0.56250000  1
  V  V3034  1  0.68750000  0.81250000  0.62500000  1
  V  V3035  1  0.68750000  0.81250000  0.68750000  1
  V  V3036  1  0.68750000  0.81250000  0.75000000  1
  V  V3037  1  0.68750000  0.81250000  0.81250000  1
  V  V3038  1  0.68750000  0.81250000  0.87500000  1
  V  V3039  1  0.68750000  0.81250000  0.93750000  1
  V  V3040  1  0.68750000  0.87500000  0.00000000  1
  V  V3041  1  0.68750000  0.87500000  0.06250000  1
  Cr  Cr3042  1  0.68750000  0.87500000  0.12500000  1
  Cr  Cr3043  1  0.68750000  0.87500000  0.18750000  1
  V  V3044  1  0.68750000  0.87500000  0.25000000  1
  Cr  Cr3045  1  0.68750000  0.87500000  0.31250000  1
  V  V3046  1  0.68750000  0.87500000  0.37500000  1
  V  V3047  1  0.68750000  0.87500000  0.43750000  1
  V  V3048  1  0.68750000  0.87500000  0.50000000  1
  V  V3049  1  0.68750000  0.87500000  0.56250000  1
  V  V3050  1  0.68750000  0.87500000  0.62500000  1
  V  V3051  1  0.68750000  0.87500000  0.68750000  1
  V  V3052  1  0.68750000  0.87500000  0.75000000  1
  V  V3053  1  0.68750000  0.87500000  0.81250000  1
  V  V3054  1  0.68750000  0.87500000  0.87500000  1
  V  V3055  1  0.68750000  0.87500000  0.93750000  1
  V  V3056  1  0.68750000  0.93750000  0.00000000  1
  Cr  Cr3057  1  0.68750000  0.93750000  0.06250000  1
  V  V3058  1  0.68750000  0.93750000  0.12500000  1
  Cr  Cr3059  1  0.68750000  0.93750000  0.18750000  1
  V  V3060  1  0.68750000  0.93750000  0.25000000  1
  Cr  Cr3061  1  0.68750000  0.93750000  0.31250000  1
  V  V3062  1  0.68750000  0.93750000  0.37500000  1
  V  V3063  1  0.68750000  0.93750000  0.43750000  1
  V  V3064  1  0.68750000  0.93750000  0.50000000  1
  V  V3065  1  0.68750000  0.93750000  0.56250000  1
  V  V3066  1  0.68750000  0.93750000  0.62500000  1
  V  V3067  1  0.68750000  0.93750000  0.68750000  1
  V  V3068  1  0.68750000  0.93750000  0.75000000  1
  V  V3069  1  0.68750000  0.93750000  0.81250000  1
  V  V3070  1  0.68750000  0.93750000  0.87500000  1
  V  V3071  1  0.68750000  0.93750000  0.93750000  1
  V  V3072  1  0.75000000  0.00000000  0.00000000  1
  Cr  Cr3073  1  0.75000000  0.00000000  0.06250000  1
  V  V3074  1  0.75000000  0.00000000  0.12500000  1
  Cr  Cr3075  1  0.75000000  0.00000000  0.18750000  1
  Cr  Cr3076  1  0.75000000  0.00000000  0.25000000  1
  Cr  Cr3077  1  0.75000000  0.00000000  0.31250000  1
  V  V3078  1  0.75000000  0.00000000  0.37500000  1
  V  V3079  1  0.75000000  0.00000000  0.43750000  1
  V  V3080  1  0.75000000  0.00000000  0.50000000  1
  V  V3081  1  0.75000000  0.00000000  0.56250000  1
  V  V3082  1  0.75000000  0.00000000  0.62500000  1
  V  V3083  1  0.75000000  0.00000000  0.68750000  1
  V  V3084  1  0.75000000  0.00000000  0.75000000  1
  V  V3085  1  0.75000000  0.00000000  0.81250000  1
  V  V3086  1  0.75000000  0.00000000  0.87500000  1
  V  V3087  1  0.75000000  0.00000000  0.93750000  1
  V  V3088  1  0.75000000  0.06250000  0.00000000  1
  V  V3089  1  0.75000000  0.06250000  0.06250000  1
  Cr  Cr3090  1  0.75000000  0.06250000  0.12500000  1
  V  V3091  1  0.75000000  0.06250000  0.18750000  1
  V  V3092  1  0.75000000  0.06250000  0.25000000  1
  Cr  Cr3093  1  0.75000000  0.06250000  0.31250000  1
  Cr  Cr3094  1  0.75000000  0.06250000  0.37500000  1
  V  V3095  1  0.75000000  0.06250000  0.43750000  1
  Cr  Cr3096  1  0.75000000  0.06250000  0.50000000  1
  V  V3097  1  0.75000000  0.06250000  0.56250000  1
  V  V3098  1  0.75000000  0.06250000  0.62500000  1
  V  V3099  1  0.75000000  0.06250000  0.68750000  1
  V  V3100  1  0.75000000  0.06250000  0.75000000  1
  V  V3101  1  0.75000000  0.06250000  0.81250000  1
  V  V3102  1  0.75000000  0.06250000  0.87500000  1
  V  V3103  1  0.75000000  0.06250000  0.93750000  1
  V  V3104  1  0.75000000  0.12500000  0.00000000  1
  V  V3105  1  0.75000000  0.12500000  0.06250000  1
  Cr  Cr3106  1  0.75000000  0.12500000  0.12500000  1
  Cr  Cr3107  1  0.75000000  0.12500000  0.18750000  1
  Cr  Cr3108  1  0.75000000  0.12500000  0.25000000  1
  Cr  Cr3109  1  0.75000000  0.12500000  0.31250000  1
  V  V3110  1  0.75000000  0.12500000  0.37500000  1
  Ti  Ti3111  1  0.75000000  0.12500000  0.43750000  1
  V  V3112  1  0.75000000  0.12500000  0.50000000  1
  Ti  Ti3113  1  0.75000000  0.12500000  0.56250000  1
  V  V3114  1  0.75000000  0.12500000  0.62500000  1
  V  V3115  1  0.75000000  0.12500000  0.68750000  1
  V  V3116  1  0.75000000  0.12500000  0.75000000  1
  V  V3117  1  0.75000000  0.12500000  0.81250000  1
  V  V3118  1  0.75000000  0.12500000  0.87500000  1
  V  V3119  1  0.75000000  0.12500000  0.93750000  1
  Cr  Cr3120  1  0.75000000  0.18750000  0.00000000  1
  V  V3121  1  0.75000000  0.18750000  0.06250000  1
  Cr  Cr3122  1  0.75000000  0.18750000  0.12500000  1
  Cr  Cr3123  1  0.75000000  0.18750000  0.18750000  1
  V  V3124  1  0.75000000  0.18750000  0.25000000  1
  Cr  Cr3125  1  0.75000000  0.18750000  0.31250000  1
  Cr  Cr3126  1  0.75000000  0.18750000  0.37500000  1
  V  V3127  1  0.75000000  0.18750000  0.43750000  1
  Ti  Ti3128  1  0.75000000  0.18750000  0.50000000  1
  V  V3129  1  0.75000000  0.18750000  0.56250000  1
  Ti  Ti3130  1  0.75000000  0.18750000  0.62500000  1
  V  V3131  1  0.75000000  0.18750000  0.68750000  1
  Cr  Cr3132  1  0.75000000  0.18750000  0.75000000  1
  V  V3133  1  0.75000000  0.18750000  0.81250000  1
  V  V3134  1  0.75000000  0.18750000  0.87500000  1
  V  V3135  1  0.75000000  0.18750000  0.93750000  1
  V  V3136  1  0.75000000  0.25000000  0.00000000  1
  Cr  Cr3137  1  0.75000000  0.25000000  0.06250000  1
  V  V3138  1  0.75000000  0.25000000  0.12500000  1
  Cr  Cr3139  1  0.75000000  0.25000000  0.18750000  1
  V  V3140  1  0.75000000  0.25000000  0.25000000  1
  Cr  Cr3141  1  0.75000000  0.25000000  0.31250000  1
  V  V3142  1  0.75000000  0.25000000  0.37500000  1
  Ti  Ti3143  1  0.75000000  0.25000000  0.43750000  1
  V  V3144  1  0.75000000  0.25000000  0.50000000  1
  Ti  Ti3145  1  0.75000000  0.25000000  0.56250000  1
  V  V3146  1  0.75000000  0.25000000  0.62500000  1
  Ti  Ti3147  1  0.75000000  0.25000000  0.68750000  1
  V  V3148  1  0.75000000  0.25000000  0.75000000  1
  Cr  Cr3149  1  0.75000000  0.25000000  0.81250000  1
  V  V3150  1  0.75000000  0.25000000  0.87500000  1
  V  V3151  1  0.75000000  0.25000000  0.93750000  1
  Cr  Cr3152  1  0.75000000  0.31250000  0.00000000  1
  Cr  Cr3153  1  0.75000000  0.31250000  0.06250000  1
  Cr  Cr3154  1  0.75000000  0.31250000  0.12500000  1
  V  V3155  1  0.75000000  0.31250000  0.18750000  1
  Cr  Cr3156  1  0.75000000  0.31250000  0.25000000  1
  V  V3157  1  0.75000000  0.31250000  0.31250000  1
  V  V3158  1  0.75000000  0.31250000  0.37500000  1
  V  V3159  1  0.75000000  0.31250000  0.43750000  1
  Ti  Ti3160  1  0.75000000  0.31250000  0.50000000  1
  V  V3161  1  0.75000000  0.31250000  0.56250000  1
  Ti  Ti3162  1  0.75000000  0.31250000  0.62500000  1
  V  V3163  1  0.75000000  0.31250000  0.68750000  1
  Ti  Ti3164  1  0.75000000  0.31250000  0.75000000  1
  V  V3165  1  0.75000000  0.31250000  0.81250000  1
  Cr  Cr3166  1  0.75000000  0.31250000  0.87500000  1
  V  V3167  1  0.75000000  0.31250000  0.93750000  1
  Cr  Cr3168  1  0.75000000  0.37500000  0.00000000  1
  Cr  Cr3169  1  0.75000000  0.37500000  0.06250000  1
  V  V3170  1  0.75000000  0.37500000  0.12500000  1
  Cr  Cr3171  1  0.75000000  0.37500000  0.18750000  1
  V  V3172  1  0.75000000  0.37500000  0.25000000  1
  V  V3173  1  0.75000000  0.37500000  0.31250000  1
  V  V3174  1  0.75000000  0.37500000  0.37500000  1
  V  V3175  1  0.75000000  0.37500000  0.43750000  1
  V  V3176  1  0.75000000  0.37500000  0.50000000  1
  Ti  Ti3177  1  0.75000000  0.37500000  0.56250000  1
  V  V3178  1  0.75000000  0.37500000  0.62500000  1
  Ti  Ti3179  1  0.75000000  0.37500000  0.68750000  1
  V  V3180  1  0.75000000  0.37500000  0.75000000  1
  Cr  Cr3181  1  0.75000000  0.37500000  0.81250000  1
  V  V3182  1  0.75000000  0.37500000  0.87500000  1
  Cr  Cr3183  1  0.75000000  0.37500000  0.93750000  1
  V  V3184  1  0.75000000  0.43750000  0.00000000  1
  V  V3185  1  0.75000000  0.43750000  0.06250000  1
  Cr  Cr3186  1  0.75000000  0.43750000  0.12500000  1
  Cr  Cr3187  1  0.75000000  0.43750000  0.18750000  1
  V  V3188  1  0.75000000  0.43750000  0.25000000  1
  V  V3189  1  0.75000000  0.43750000  0.31250000  1
  V  V3190  1  0.75000000  0.43750000  0.37500000  1
  V  V3191  1  0.75000000  0.43750000  0.43750000  1
  V  V3192  1  0.75000000  0.43750000  0.50000000  1
  V  V3193  1  0.75000000  0.43750000  0.56250000  1
  Cr  Cr3194  1  0.75000000  0.43750000  0.62500000  1
  V  V3195  1  0.75000000  0.43750000  0.68750000  1
  Cr  Cr3196  1  0.75000000  0.43750000  0.75000000  1
  V  V3197  1  0.75000000  0.43750000  0.81250000  1
  Cr  Cr3198  1  0.75000000  0.43750000  0.87500000  1
  Cr  Cr3199  1  0.75000000  0.43750000  0.93750000  1
  Cr  Cr3200  1  0.75000000  0.50000000  0.00000000  1
  Cr  Cr3201  1  0.75000000  0.50000000  0.06250000  1
  Cr  Cr3202  1  0.75000000  0.50000000  0.12500000  1
  V  V3203  1  0.75000000  0.50000000  0.18750000  1
  V  V3204  1  0.75000000  0.50000000  0.25000000  1
  V  V3205  1  0.75000000  0.50000000  0.31250000  1
  V  V3206  1  0.75000000  0.50000000  0.37500000  1
  V  V3207  1  0.75000000  0.50000000  0.43750000  1
  V  V3208  1  0.75000000  0.50000000  0.50000000  1
  V  V3209  1  0.75000000  0.50000000  0.56250000  1
  V  V3210  1  0.75000000  0.50000000  0.62500000  1
  V  V3211  1  0.75000000  0.50000000  0.68750000  1
  V  V3212  1  0.75000000  0.50000000  0.75000000  1
  V  V3213  1  0.75000000  0.50000000  0.81250000  1
  Cr  Cr3214  1  0.75000000  0.50000000  0.87500000  1
  V  V3215  1  0.75000000  0.50000000  0.93750000  1
  Cr  Cr3216  1  0.75000000  0.56250000  0.00000000  1
  Cr  Cr3217  1  0.75000000  0.56250000  0.06250000  1
  V  V3218  1  0.75000000  0.56250000  0.12500000  1
  Cr  Cr3219  1  0.75000000  0.56250000  0.18750000  1
  V  V3220  1  0.75000000  0.56250000  0.25000000  1
  V  V3221  1  0.75000000  0.56250000  0.31250000  1
  V  V3222  1  0.75000000  0.56250000  0.37500000  1
  V  V3223  1  0.75000000  0.56250000  0.43750000  1
  V  V3224  1  0.75000000  0.56250000  0.50000000  1
  V  V3225  1  0.75000000  0.56250000  0.56250000  1
  V  V3226  1  0.75000000  0.56250000  0.62500000  1
  V  V3227  1  0.75000000  0.56250000  0.68750000  1
  V  V3228  1  0.75000000  0.56250000  0.75000000  1
  Cr  Cr3229  1  0.75000000  0.56250000  0.81250000  1
  Cr  Cr3230  1  0.75000000  0.56250000  0.87500000  1
  Cr  Cr3231  1  0.75000000  0.56250000  0.93750000  1
  V  V3232  1  0.75000000  0.62500000  0.00000000  1
  V  V3233  1  0.75000000  0.62500000  0.06250000  1
  Cr  Cr3234  1  0.75000000  0.62500000  0.12500000  1
  Cr  Cr3235  1  0.75000000  0.62500000  0.18750000  1
  V  V3236  1  0.75000000  0.62500000  0.25000000  1
  V  V3237  1  0.75000000  0.62500000  0.31250000  1
  V  V3238  1  0.75000000  0.62500000  0.37500000  1
  V  V3239  1  0.75000000  0.62500000  0.43750000  1
  V  V3240  1  0.75000000  0.62500000  0.50000000  1
  V  V3241  1  0.75000000  0.62500000  0.56250000  1
  V  V3242  1  0.75000000  0.62500000  0.62500000  1
  V  V3243  1  0.75000000  0.62500000  0.68750000  1
  V  V3244  1  0.75000000  0.62500000  0.75000000  1
  V  V3245  1  0.75000000  0.62500000  0.81250000  1
  V  V3246  1  0.75000000  0.62500000  0.87500000  1
  Cr  Cr3247  1  0.75000000  0.62500000  0.93750000  1
  Cr  Cr3248  1  0.75000000  0.68750000  0.00000000  1
  Cr  Cr3249  1  0.75000000  0.68750000  0.06250000  1
  Cr  Cr3250  1  0.75000000  0.68750000  0.12500000  1
  V  V3251  1  0.75000000  0.68750000  0.18750000  1
  V  V3252  1  0.75000000  0.68750000  0.25000000  1
  V  V3253  1  0.75000000  0.68750000  0.31250000  1
  V  V3254  1  0.75000000  0.68750000  0.37500000  1
  V  V3255  1  0.75000000  0.68750000  0.43750000  1
  V  V3256  1  0.75000000  0.68750000  0.50000000  1
  V  V3257  1  0.75000000  0.68750000  0.56250000  1
  V  V3258  1  0.75000000  0.68750000  0.62500000  1
  V  V3259  1  0.75000000  0.68750000  0.68750000  1
  V  V3260  1  0.75000000  0.68750000  0.75000000  1
  V  V3261  1  0.75000000  0.68750000  0.81250000  1
  V  V3262  1  0.75000000  0.68750000  0.87500000  1
  V  V3263  1  0.75000000  0.68750000  0.93750000  1
  V  V3264  1  0.75000000  0.75000000  0.00000000  1
  V  V3265  1  0.75000000  0.75000000  0.06250000  1
  Cr  Cr3266  1  0.75000000  0.75000000  0.12500000  1
  V  V3267  1  0.75000000  0.75000000  0.18750000  1
  Cr  Cr3268  1  0.75000000  0.75000000  0.25000000  1
  V  V3269  1  0.75000000  0.75000000  0.31250000  1
  V  V3270  1  0.75000000  0.75000000  0.37500000  1
  V  V3271  1  0.75000000  0.75000000  0.43750000  1
  V  V3272  1  0.75000000  0.75000000  0.50000000  1
  V  V3273  1  0.75000000  0.75000000  0.56250000  1
  V  V3274  1  0.75000000  0.75000000  0.62500000  1
  V  V3275  1  0.75000000  0.75000000  0.68750000  1
  V  V3276  1  0.75000000  0.75000000  0.75000000  1
  V  V3277  1  0.75000000  0.75000000  0.81250000  1
  V  V3278  1  0.75000000  0.75000000  0.87500000  1
  V  V3279  1  0.75000000  0.75000000  0.93750000  1
  V  V3280  1  0.75000000  0.81250000  0.00000000  1
  V  V3281  1  0.75000000  0.81250000  0.06250000  1
  Cr  Cr3282  1  0.75000000  0.81250000  0.12500000  1
  Cr  Cr3283  1  0.75000000  0.81250000  0.18750000  1
  V  V3284  1  0.75000000  0.81250000  0.25000000  1
  V  V3285  1  0.75000000  0.81250000  0.31250000  1
  V  V3286  1  0.75000000  0.81250000  0.37500000  1
  V  V3287  1  0.75000000  0.81250000  0.43750000  1
  V  V3288  1  0.75000000  0.81250000  0.50000000  1
  V  V3289  1  0.75000000  0.81250000  0.56250000  1
  V  V3290  1  0.75000000  0.81250000  0.62500000  1
  V  V3291  1  0.75000000  0.81250000  0.68750000  1
  V  V3292  1  0.75000000  0.81250000  0.75000000  1
  V  V3293  1  0.75000000  0.81250000  0.81250000  1
  V  V3294  1  0.75000000  0.81250000  0.87500000  1
  V  V3295  1  0.75000000  0.81250000  0.93750000  1
  V  V3296  1  0.75000000  0.87500000  0.00000000  1
  V  V3297  1  0.75000000  0.87500000  0.06250000  1
  Cr  Cr3298  1  0.75000000  0.87500000  0.12500000  1
  V  V3299  1  0.75000000  0.87500000  0.18750000  1
  Cr  Cr3300  1  0.75000000  0.87500000  0.25000000  1
  V  V3301  1  0.75000000  0.87500000  0.31250000  1
  V  V3302  1  0.75000000  0.87500000  0.37500000  1
  V  V3303  1  0.75000000  0.87500000  0.43750000  1
  V  V3304  1  0.75000000  0.87500000  0.50000000  1
  V  V3305  1  0.75000000  0.87500000  0.56250000  1
  V  V3306  1  0.75000000  0.87500000  0.62500000  1
  V  V3307  1  0.75000000  0.87500000  0.68750000  1
  V  V3308  1  0.75000000  0.87500000  0.75000000  1
  V  V3309  1  0.75000000  0.87500000  0.81250000  1
  V  V3310  1  0.75000000  0.87500000  0.87500000  1
  V  V3311  1  0.75000000  0.87500000  0.93750000  1
  V  V3312  1  0.75000000  0.93750000  0.00000000  1
  Cr  Cr3313  1  0.75000000  0.93750000  0.06250000  1
  Cr  Cr3314  1  0.75000000  0.93750000  0.12500000  1
  V  V3315  1  0.75000000  0.93750000  0.18750000  1
  Cr  Cr3316  1  0.75000000  0.93750000  0.25000000  1
  Cr  Cr3317  1  0.75000000  0.93750000  0.31250000  1
  V  V3318  1  0.75000000  0.93750000  0.37500000  1
  V  V3319  1  0.75000000  0.93750000  0.43750000  1
  V  V3320  1  0.75000000  0.93750000  0.50000000  1
  V  V3321  1  0.75000000  0.93750000  0.56250000  1
  V  V3322  1  0.75000000  0.93750000  0.62500000  1
  V  V3323  1  0.75000000  0.93750000  0.68750000  1
  V  V3324  1  0.75000000  0.93750000  0.75000000  1
  V  V3325  1  0.75000000  0.93750000  0.81250000  1
  V  V3326  1  0.75000000  0.93750000  0.87500000  1
  V  V3327  1  0.75000000  0.93750000  0.93750000  1
  V  V3328  1  0.81250000  0.00000000  0.00000000  1
  Cr  Cr3329  1  0.81250000  0.00000000  0.06250000  1
  V  V3330  1  0.81250000  0.00000000  0.12500000  1
  Cr  Cr3331  1  0.81250000  0.00000000  0.18750000  1
  V  V3332  1  0.81250000  0.00000000  0.25000000  1
  V  V3333  1  0.81250000  0.00000000  0.31250000  1
  Cr  Cr3334  1  0.81250000  0.00000000  0.37500000  1
  V  V3335  1  0.81250000  0.00000000  0.43750000  1
  V  V3336  1  0.81250000  0.00000000  0.50000000  1
  V  V3337  1  0.81250000  0.00000000  0.56250000  1
  V  V3338  1  0.81250000  0.00000000  0.62500000  1
  V  V3339  1  0.81250000  0.00000000  0.68750000  1
  V  V3340  1  0.81250000  0.00000000  0.75000000  1
  V  V3341  1  0.81250000  0.00000000  0.81250000  1
  V  V3342  1  0.81250000  0.00000000  0.87500000  1
  V  V3343  1  0.81250000  0.00000000  0.93750000  1
  V  V3344  1  0.81250000  0.06250000  0.00000000  1
  V  V3345  1  0.81250000  0.06250000  0.06250000  1
  Cr  Cr3346  1  0.81250000  0.06250000  0.12500000  1
  Cr  Cr3347  1  0.81250000  0.06250000  0.18750000  1
  Cr  Cr3348  1  0.81250000  0.06250000  0.25000000  1
  V  V3349  1  0.81250000  0.06250000  0.31250000  1
  Cr  Cr3350  1  0.81250000  0.06250000  0.37500000  1
  Cr  Cr3351  1  0.81250000  0.06250000  0.43750000  1
  V  V3352  1  0.81250000  0.06250000  0.50000000  1
  V  V3353  1  0.81250000  0.06250000  0.56250000  1
  V  V3354  1  0.81250000  0.06250000  0.62500000  1
  V  V3355  1  0.81250000  0.06250000  0.68750000  1
  V  V3356  1  0.81250000  0.06250000  0.75000000  1
  V  V3357  1  0.81250000  0.06250000  0.81250000  1
  V  V3358  1  0.81250000  0.06250000  0.87500000  1
  V  V3359  1  0.81250000  0.06250000  0.93750000  1
  V  V3360  1  0.81250000  0.12500000  0.00000000  1
  Cr  Cr3361  1  0.81250000  0.12500000  0.06250000  1
  Cr  Cr3362  1  0.81250000  0.12500000  0.12500000  1
  V  V3363  1  0.81250000  0.12500000  0.18750000  1
  V  V3364  1  0.81250000  0.12500000  0.25000000  1
  Cr  Cr3365  1  0.81250000  0.12500000  0.31250000  1
  Cr  Cr3366  1  0.81250000  0.12500000  0.37500000  1
  V  V3367  1  0.81250000  0.12500000  0.43750000  1
  Ti  Ti3368  1  0.81250000  0.12500000  0.50000000  1
  V  V3369  1  0.81250000  0.12500000  0.56250000  1
  Ti  Ti3370  1  0.81250000  0.12500000  0.62500000  1
  V  V3371  1  0.81250000  0.12500000  0.68750000  1
  Cr  Cr3372  1  0.81250000  0.12500000  0.75000000  1
  V  V3373  1  0.81250000  0.12500000  0.81250000  1
  V  V3374  1  0.81250000  0.12500000  0.87500000  1
  V  V3375  1  0.81250000  0.12500000  0.93750000  1
  V  V3376  1  0.81250000  0.18750000  0.00000000  1
  Cr  Cr3377  1  0.81250000  0.18750000  0.06250000  1
  Cr  Cr3378  1  0.81250000  0.18750000  0.12500000  1
  V  V3379  1  0.81250000  0.18750000  0.18750000  1
  Cr  Cr3380  1  0.81250000  0.18750000  0.25000000  1
  V  V3381  1  0.81250000  0.18750000  0.31250000  1
  V  V3382  1  0.81250000  0.18750000  0.37500000  1
  Ti  Ti3383  1  0.81250000  0.18750000  0.43750000  1
  V  V3384  1  0.81250000  0.18750000  0.50000000  1
  Ti  Ti3385  1  0.81250000  0.18750000  0.56250000  1
  V  V3386  1  0.81250000  0.18750000  0.62500000  1
  Ti  Ti3387  1  0.81250000  0.18750000  0.68750000  1
  V  V3388  1  0.81250000  0.18750000  0.75000000  1
  Ti  Ti3389  1  0.81250000  0.18750000  0.81250000  1
  V  V3390  1  0.81250000  0.18750000  0.87500000  1
  V  V3391  1  0.81250000  0.18750000  0.93750000  1
  V  V3392  1  0.81250000  0.25000000  0.00000000  1
  Cr  Cr3393  1  0.81250000  0.25000000  0.06250000  1
  V  V3394  1  0.81250000  0.25000000  0.12500000  1
  Cr  Cr3395  1  0.81250000  0.25000000  0.18750000  1
  V  V3396  1  0.81250000  0.25000000  0.25000000  1
  Cr  Cr3397  1  0.81250000  0.25000000  0.31250000  1
  Cr  Cr3398  1  0.81250000  0.25000000  0.37500000  1
  V  V3399  1  0.81250000  0.25000000  0.43750000  1
  Ti  Ti3400  1  0.81250000  0.25000000  0.50000000  1
  V  V3401  1  0.81250000  0.25000000  0.56250000  1
  Ti  Ti3402  1  0.81250000  0.25000000  0.62500000  1
  V  V3403  1  0.81250000  0.25000000  0.68750000  1
  Ti  Ti3404  1  0.81250000  0.25000000  0.75000000  1
  V  V3405  1  0.81250000  0.25000000  0.81250000  1
  Ti  Ti3406  1  0.81250000  0.25000000  0.87500000  1
  V  V3407  1  0.81250000  0.25000000  0.93750000  1
  Cr  Cr3408  1  0.81250000  0.31250000  0.00000000  1
  Cr  Cr3409  1  0.81250000  0.31250000  0.06250000  1
  V  V3410  1  0.81250000  0.31250000  0.12500000  1
  Cr  Cr3411  1  0.81250000  0.31250000  0.18750000  1
  Cr  Cr3412  1  0.81250000  0.31250000  0.25000000  1
  V  V3413  1  0.81250000  0.31250000  0.31250000  1
  V  V3414  1  0.81250000  0.31250000  0.37500000  1
  Ti  Ti3415  1  0.81250000  0.31250000  0.43750000  1
  V  V3416  1  0.81250000  0.31250000  0.50000000  1
  Ti  Ti3417  1  0.81250000  0.31250000  0.56250000  1
  V  V3418  1  0.81250000  0.31250000  0.62500000  1
  Ti  Ti3419  1  0.81250000  0.31250000  0.68750000  1
  V  V3420  1  0.81250000  0.31250000  0.75000000  1
  Ti  Ti3421  1  0.81250000  0.31250000  0.81250000  1
  V  V3422  1  0.81250000  0.31250000  0.87500000  1
  Cr  Cr3423  1  0.81250000  0.31250000  0.93750000  1
  V  V3424  1  0.81250000  0.37500000  0.00000000  1
  V  V3425  1  0.81250000  0.37500000  0.06250000  1
  Cr  Cr3426  1  0.81250000  0.37500000  0.12500000  1
  Cr  Cr3427  1  0.81250000  0.37500000  0.18750000  1
  Cr  Cr3428  1  0.81250000  0.37500000  0.25000000  1
  V  V3429  1  0.81250000  0.37500000  0.31250000  1
  V  V3430  1  0.81250000  0.37500000  0.37500000  1
  V  V3431  1  0.81250000  0.37500000  0.43750000  1
  Ti  Ti3432  1  0.81250000  0.37500000  0.50000000  1
  V  V3433  1  0.81250000  0.37500000  0.56250000  1
  Ti  Ti3434  1  0.81250000  0.37500000  0.62500000  1
  V  V3435  1  0.81250000  0.37500000  0.68750000  1
  Ti  Ti3436  1  0.81250000  0.37500000  0.75000000  1
  V  V3437  1  0.81250000  0.37500000  0.81250000  1
  Ti  Ti3438  1  0.81250000  0.37500000  0.87500000  1
  V  V3439  1  0.81250000  0.37500000  0.93750000  1
  V  V3440  1  0.81250000  0.43750000  0.00000000  1
  Cr  Cr3441  1  0.81250000  0.43750000  0.06250000  1
  V  V3442  1  0.81250000  0.43750000  0.12500000  1
  V  V3443  1  0.81250000  0.43750000  0.18750000  1
  V  V3444  1  0.81250000  0.43750000  0.25000000  1
  V  V3445  1  0.81250000  0.43750000  0.31250000  1
  V  V3446  1  0.81250000  0.43750000  0.37500000  1
  V  V3447  1  0.81250000  0.43750000  0.43750000  1
  V  V3448  1  0.81250000  0.43750000  0.50000000  1
  Ti  Ti3449  1  0.81250000  0.43750000  0.56250000  1
  V  V3450  1  0.81250000  0.43750000  0.62500000  1
  Ti  Ti3451  1  0.81250000  0.43750000  0.68750000  1
  V  V3452  1  0.81250000  0.43750000  0.75000000  1
  Ti  Ti3453  1  0.81250000  0.43750000  0.81250000  1
  V  V3454  1  0.81250000  0.43750000  0.87500000  1
  Cr  Cr3455  1  0.81250000  0.43750000  0.93750000  1
  Cr  Cr3456  1  0.81250000  0.50000000  0.00000000  1
  Cr  Cr3457  1  0.81250000  0.50000000  0.06250000  1
  Cr  Cr3458  1  0.81250000  0.50000000  0.12500000  1
  V  V3459  1  0.81250000  0.50000000  0.18750000  1
  Cr  Cr3460  1  0.81250000  0.50000000  0.25000000  1
  V  V3461  1  0.81250000  0.50000000  0.31250000  1
  V  V3462  1  0.81250000  0.50000000  0.37500000  1
  V  V3463  1  0.81250000  0.50000000  0.43750000  1
  V  V3464  1  0.81250000  0.50000000  0.50000000  1
  V  V3465  1  0.81250000  0.50000000  0.56250000  1
  Ti  Ti3466  1  0.81250000  0.50000000  0.62500000  1
  V  V3467  1  0.81250000  0.50000000  0.68750000  1
  Cr  Cr3468  1  0.81250000  0.50000000  0.75000000  1
  V  V3469  1  0.81250000  0.50000000  0.81250000  1
  Cr  Cr3470  1  0.81250000  0.50000000  0.87500000  1
  V  V3471  1  0.81250000  0.50000000  0.93750000  1
  V  V3472  1  0.81250000  0.56250000  0.00000000  1
  V  V3473  1  0.81250000  0.56250000  0.06250000  1
  V  V3474  1  0.81250000  0.56250000  0.12500000  1
  Cr  Cr3475  1  0.81250000  0.56250000  0.18750000  1
  V  V3476  1  0.81250000  0.56250000  0.25000000  1
  V  V3477  1  0.81250000  0.56250000  0.31250000  1
  V  V3478  1  0.81250000  0.56250000  0.37500000  1
  V  V3479  1  0.81250000  0.56250000  0.43750000  1
  V  V3480  1  0.81250000  0.56250000  0.50000000  1
  V  V3481  1  0.81250000  0.56250000  0.56250000  1
  V  V3482  1  0.81250000  0.56250000  0.62500000  1
  Cr  Cr3483  1  0.81250000  0.56250000  0.68750000  1
  V  V3484  1  0.81250000  0.56250000  0.75000000  1
  V  V3485  1  0.81250000  0.56250000  0.81250000  1
  V  V3486  1  0.81250000  0.56250000  0.87500000  1
  Cr  Cr3487  1  0.81250000  0.56250000  0.93750000  1
  Cr  Cr3488  1  0.81250000  0.62500000  0.00000000  1
  Cr  Cr3489  1  0.81250000  0.62500000  0.06250000  1
  Cr  Cr3490  1  0.81250000  0.62500000  0.12500000  1
  V  V3491  1  0.81250000  0.62500000  0.18750000  1
  Cr  Cr3492  1  0.81250000  0.62500000  0.25000000  1
  V  V3493  1  0.81250000  0.62500000  0.31250000  1
  V  V3494  1  0.81250000  0.62500000  0.37500000  1
  V  V3495  1  0.81250000  0.62500000  0.43750000  1
  V  V3496  1  0.81250000  0.62500000  0.50000000  1
  V  V3497  1  0.81250000  0.62500000  0.56250000  1
  V  V3498  1  0.81250000  0.62500000  0.62500000  1
  V  V3499  1  0.81250000  0.62500000  0.68750000  1
  V  V3500  1  0.81250000  0.62500000  0.75000000  1
  V  V3501  1  0.81250000  0.62500000  0.81250000  1
  V  V3502  1  0.81250000  0.62500000  0.87500000  1
  V  V3503  1  0.81250000  0.62500000  0.93750000  1
  Cr  Cr3504  1  0.81250000  0.68750000  0.00000000  1
  V  V3505  1  0.81250000  0.68750000  0.06250000  1
  Cr  Cr3506  1  0.81250000  0.68750000  0.12500000  1
  Cr  Cr3507  1  0.81250000  0.68750000  0.18750000  1
  Cr  Cr3508  1  0.81250000  0.68750000  0.25000000  1
  V  V3509  1  0.81250000  0.68750000  0.31250000  1
  V  V3510  1  0.81250000  0.68750000  0.37500000  1
  V  V3511  1  0.81250000  0.68750000  0.43750000  1
  V  V3512  1  0.81250000  0.68750000  0.50000000  1
  V  V3513  1  0.81250000  0.68750000  0.56250000  1
  V  V3514  1  0.81250000  0.68750000  0.62500000  1
  V  V3515  1  0.81250000  0.68750000  0.68750000  1
  Cr  Cr3516  1  0.81250000  0.68750000  0.75000000  1
  V  V3517  1  0.81250000  0.68750000  0.81250000  1
  V  V3518  1  0.81250000  0.68750000  0.87500000  1
  V  V3519  1  0.81250000  0.68750000  0.93750000  1
  V  V3520  1  0.81250000  0.75000000  0.00000000  1
  Cr  Cr3521  1  0.81250000  0.75000000  0.06250000  1
  V  V3522  1  0.81250000  0.75000000  0.12500000  1
  Cr  Cr3523  1  0.81250000  0.75000000  0.18750000  1
  Cr  Cr3524  1  0.81250000  0.75000000  0.25000000  1
  V  V3525  1  0.81250000  0.75000000  0.31250000  1
  V  V3526  1  0.81250000  0.75000000  0.37500000  1
  V  V3527  1  0.81250000  0.75000000  0.43750000  1
  V  V3528  1  0.81250000  0.75000000  0.50000000  1
  V  V3529  1  0.81250000  0.75000000  0.56250000  1
  V  V3530  1  0.81250000  0.75000000  0.62500000  1
  V  V3531  1  0.81250000  0.75000000  0.68750000  1
  V  V3532  1  0.81250000  0.75000000  0.75000000  1
  V  V3533  1  0.81250000  0.75000000  0.81250000  1
  V  V3534  1  0.81250000  0.75000000  0.87500000  1
  V  V3535  1  0.81250000  0.75000000  0.93750000  1
  V  V3536  1  0.81250000  0.81250000  0.00000000  1
  Cr  Cr3537  1  0.81250000  0.81250000  0.06250000  1
  Cr  Cr3538  1  0.81250000  0.81250000  0.12500000  1
  V  V3539  1  0.81250000  0.81250000  0.18750000  1
  V  V3540  1  0.81250000  0.81250000  0.25000000  1
  Cr  Cr3541  1  0.81250000  0.81250000  0.31250000  1
  Cr  Cr3542  1  0.81250000  0.81250000  0.37500000  1
  V  V3543  1  0.81250000  0.81250000  0.43750000  1
  V  V3544  1  0.81250000  0.81250000  0.50000000  1
  V  V3545  1  0.81250000  0.81250000  0.56250000  1
  V  V3546  1  0.81250000  0.81250000  0.62500000  1
  V  V3547  1  0.81250000  0.81250000  0.68750000  1
  V  V3548  1  0.81250000  0.81250000  0.75000000  1
  V  V3549  1  0.81250000  0.81250000  0.81250000  1
  V  V3550  1  0.81250000  0.81250000  0.87500000  1
  V  V3551  1  0.81250000  0.81250000  0.93750000  1
  V  V3552  1  0.81250000  0.87500000  0.00000000  1
  Cr  Cr3553  1  0.81250000  0.87500000  0.06250000  1
  V  V3554  1  0.81250000  0.87500000  0.12500000  1
  Cr  Cr3555  1  0.81250000  0.87500000  0.18750000  1
  Cr  Cr3556  1  0.81250000  0.87500000  0.25000000  1
  Cr  Cr3557  1  0.81250000  0.87500000  0.31250000  1
  Cr  Cr3558  1  0.81250000  0.87500000  0.37500000  1
  V  V3559  1  0.81250000  0.87500000  0.43750000  1
  V  V3560  1  0.81250000  0.87500000  0.50000000  1
  V  V3561  1  0.81250000  0.87500000  0.56250000  1
  V  V3562  1  0.81250000  0.87500000  0.62500000  1
  V  V3563  1  0.81250000  0.87500000  0.68750000  1
  V  V3564  1  0.81250000  0.87500000  0.75000000  1
  V  V3565  1  0.81250000  0.87500000  0.81250000  1
  V  V3566  1  0.81250000  0.87500000  0.87500000  1
  V  V3567  1  0.81250000  0.87500000  0.93750000  1
  V  V3568  1  0.81250000  0.93750000  0.00000000  1
  Cr  Cr3569  1  0.81250000  0.93750000  0.06250000  1
  V  V3570  1  0.81250000  0.93750000  0.12500000  1
  Cr  Cr3571  1  0.81250000  0.93750000  0.18750000  1
  Cr  Cr3572  1  0.81250000  0.93750000  0.25000000  1
  V  V3573  1  0.81250000  0.93750000  0.31250000  1
  Cr  Cr3574  1  0.81250000  0.93750000  0.37500000  1
  V  V3575  1  0.81250000  0.93750000  0.43750000  1
  V  V3576  1  0.81250000  0.93750000  0.50000000  1
  V  V3577  1  0.81250000  0.93750000  0.56250000  1
  V  V3578  1  0.81250000  0.93750000  0.62500000  1
  V  V3579  1  0.81250000  0.93750000  0.68750000  1
  V  V3580  1  0.81250000  0.93750000  0.75000000  1
  V  V3581  1  0.81250000  0.93750000  0.81250000  1
  V  V3582  1  0.81250000  0.93750000  0.87500000  1
  V  V3583  1  0.81250000  0.93750000  0.93750000  1
  V  V3584  1  0.87500000  0.00000000  0.00000000  1
  Cr  Cr3585  1  0.87500000  0.00000000  0.06250000  1
  Cr  Cr3586  1  0.87500000  0.00000000  0.12500000  1
  Cr  Cr3587  1  0.87500000  0.00000000  0.18750000  1
  V  V3588  1  0.87500000  0.00000000  0.25000000  1
  Cr  Cr3589  1  0.87500000  0.00000000  0.31250000  1
  Cr  Cr3590  1  0.87500000  0.00000000  0.37500000  1
  Cr  Cr3591  1  0.87500000  0.00000000  0.43750000  1
  V  V3592  1  0.87500000  0.00000000  0.50000000  1
  V  V3593  1  0.87500000  0.00000000  0.56250000  1
  V  V3594  1  0.87500000  0.00000000  0.62500000  1
  V  V3595  1  0.87500000  0.00000000  0.68750000  1
  V  V3596  1  0.87500000  0.00000000  0.75000000  1
  V  V3597  1  0.87500000  0.00000000  0.81250000  1
  V  V3598  1  0.87500000  0.00000000  0.87500000  1
  V  V3599  1  0.87500000  0.00000000  0.93750000  1
  V  V3600  1  0.87500000  0.06250000  0.00000000  1
  Cr  Cr3601  1  0.87500000  0.06250000  0.06250000  1
  V  V3602  1  0.87500000  0.06250000  0.12500000  1
  Cr  Cr3603  1  0.87500000  0.06250000  0.18750000  1
  V  V3604  1  0.87500000  0.06250000  0.25000000  1
  Cr  Cr3605  1  0.87500000  0.06250000  0.31250000  1
  Cr  Cr3606  1  0.87500000  0.06250000  0.37500000  1
  V  V3607  1  0.87500000  0.06250000  0.43750000  1
  Cr  Cr3608  1  0.87500000  0.06250000  0.50000000  1
  V  V3609  1  0.87500000  0.06250000  0.56250000  1
  V  V3610  1  0.87500000  0.06250000  0.62500000  1
  V  V3611  1  0.87500000  0.06250000  0.68750000  1
  V  V3612  1  0.87500000  0.06250000  0.75000000  1
  V  V3613  1  0.87500000  0.06250000  0.81250000  1
  V  V3614  1  0.87500000  0.06250000  0.87500000  1
  V  V3615  1  0.87500000  0.06250000  0.93750000  1
  V  V3616  1  0.87500000  0.12500000  0.00000000  1
  Cr  Cr3617  1  0.87500000  0.12500000  0.06250000  1
  Cr  Cr3618  1  0.87500000  0.12500000  0.12500000  1
  V  V3619  1  0.87500000  0.12500000  0.18750000  1
  Cr  Cr3620  1  0.87500000  0.12500000  0.25000000  1
  Cr  Cr3621  1  0.87500000  0.12500000  0.31250000  1
  V  V3622  1  0.87500000  0.12500000  0.37500000  1
  Cr  Cr3623  1  0.87500000  0.12500000  0.43750000  1
  V  V3624  1  0.87500000  0.12500000  0.50000000  1
  Ti  Ti3625  1  0.87500000  0.12500000  0.56250000  1
  V  V3626  1  0.87500000  0.12500000  0.62500000  1
  Cr  Cr3627  1  0.87500000  0.12500000  0.68750000  1
  V  V3628  1  0.87500000  0.12500000  0.75000000  1
  V  V3629  1  0.87500000  0.12500000  0.81250000  1
  V  V3630  1  0.87500000  0.12500000  0.87500000  1
  V  V3631  1  0.87500000  0.12500000  0.93750000  1
  Cr  Cr3632  1  0.87500000  0.18750000  0.00000000  1
  V  V3633  1  0.87500000  0.18750000  0.06250000  1
  V  V3634  1  0.87500000  0.18750000  0.12500000  1
  Cr  Cr3635  1  0.87500000  0.18750000  0.18750000  1
  Cr  Cr3636  1  0.87500000  0.18750000  0.25000000  1
  V  V3637  1  0.87500000  0.18750000  0.31250000  1
  Cr  Cr3638  1  0.87500000  0.18750000  0.37500000  1
  V  V3639  1  0.87500000  0.18750000  0.43750000  1
  Ti  Ti3640  1  0.87500000  0.18750000  0.50000000  1
  V  V3641  1  0.87500000  0.18750000  0.56250000  1
  Ti  Ti3642  1  0.87500000  0.18750000  0.62500000  1
  V  V3643  1  0.87500000  0.18750000  0.68750000  1
  Ti  Ti3644  1  0.87500000  0.18750000  0.75000000  1
  V  V3645  1  0.87500000  0.18750000  0.81250000  1
  Cr  Cr3646  1  0.87500000  0.18750000  0.87500000  1
  V  V3647  1  0.87500000  0.18750000  0.93750000  1
  V  V3648  1  0.87500000  0.25000000  0.00000000  1
  Cr  Cr3649  1  0.87500000  0.25000000  0.06250000  1
  Cr  Cr3650  1  0.87500000  0.25000000  0.12500000  1
  Cr  Cr3651  1  0.87500000  0.25000000  0.18750000  1
  Cr  Cr3652  1  0.87500000  0.25000000  0.25000000  1
  V  V3653  1  0.87500000  0.25000000  0.31250000  1
  Cr  Cr3654  1  0.87500000  0.25000000  0.37500000  1
  Cr  Cr3655  1  0.87500000  0.25000000  0.43750000  1
  V  V3656  1  0.87500000  0.25000000  0.50000000  1
  Ti  Ti3657  1  0.87500000  0.25000000  0.56250000  1
  V  V3658  1  0.87500000  0.25000000  0.62500000  1
  Ti  Ti3659  1  0.87500000  0.25000000  0.68750000  1
  V  V3660  1  0.87500000  0.25000000  0.75000000  1
  Ti  Ti3661  1  0.87500000  0.25000000  0.81250000  1
  V  V3662  1  0.87500000  0.25000000  0.87500000  1
  Ti  Ti3663  1  0.87500000  0.25000000  0.93750000  1
  Cr  Cr3664  1  0.87500000  0.31250000  0.00000000  1
  Cr  Cr3665  1  0.87500000  0.31250000  0.06250000  1
  V  V3666  1  0.87500000  0.31250000  0.12500000  1
  Cr  Cr3667  1  0.87500000  0.31250000  0.18750000  1
  V  V3668  1  0.87500000  0.31250000  0.25000000  1
  Cr  Cr3669  1  0.87500000  0.31250000  0.31250000  1
  V  V3670  1  0.87500000  0.31250000  0.37500000  1
  V  V3671  1  0.87500000  0.31250000  0.43750000  1
  Ti  Ti3672  1  0.87500000  0.31250000  0.50000000  1
  V  V3673  1  0.87500000  0.31250000  0.56250000  1
  Ti  Ti3674  1  0.87500000  0.31250000  0.62500000  1
  V  V3675  1  0.87500000  0.31250000  0.68750000  1
  Ti  Ti3676  1  0.87500000  0.31250000  0.75000000  1
  V  V3677  1  0.87500000  0.31250000  0.81250000  1
  Ti  Ti3678  1  0.87500000  0.31250000  0.87500000  1
  V  V3679  1  0.87500000  0.31250000  0.93750000  1
  V  V3680  1  0.87500000  0.37500000  0.00000000  1
  V  V3681  1  0.87500000  0.37500000  0.06250000  1
  Cr  Cr3682  1  0.87500000  0.37500000  0.12500000  1
  V  V3683  1  0.87500000  0.37500000  0.18750000  1
  V  V3684  1  0.87500000  0.37500000  0.25000000  1
  V  V3685  1  0.87500000  0.37500000  0.31250000  1
  Cr  Cr3686  1  0.87500000  0.37500000  0.37500000  1
  Cr  Cr3687  1  0.87500000  0.37500000  0.43750000  1
  V  V3688  1  0.87500000  0.37500000  0.50000000  1
  Ti  Ti3689  1  0.87500000  0.37500000  0.56250000  1
  V  V3690  1  0.87500000  0.37500000  0.62500000  1
  Ti  Ti3691  1  0.87500000  0.37500000  0.68750000  1
  V  V3692  1  0.87500000  0.37500000  0.75000000  1
  Ti  Ti3693  1  0.87500000  0.37500000  0.81250000  1
  V  V3694  1  0.87500000  0.37500000  0.87500000  1
  Ti  Ti3695  1  0.87500000  0.37500000  0.93750000  1
  Cr  Cr3696  1  0.87500000  0.43750000  0.00000000  1
  V  V3697  1  0.87500000  0.43750000  0.06250000  1
  Cr  Cr3698  1  0.87500000  0.43750000  0.12500000  1
  Cr  Cr3699  1  0.87500000  0.43750000  0.18750000  1
  V  V3700  1  0.87500000  0.43750000  0.25000000  1
  Cr  Cr3701  1  0.87500000  0.43750000  0.31250000  1
  Cr  Cr3702  1  0.87500000  0.43750000  0.37500000  1
  V  V3703  1  0.87500000  0.43750000  0.43750000  1
  Ti  Ti3704  1  0.87500000  0.43750000  0.50000000  1
  V  V3705  1  0.87500000  0.43750000  0.56250000  1
  Ti  Ti3706  1  0.87500000  0.43750000  0.62500000  1
  V  V3707  1  0.87500000  0.43750000  0.68750000  1
  Ti  Ti3708  1  0.87500000  0.43750000  0.75000000  1
  V  V3709  1  0.87500000  0.43750000  0.81250000  1
  Ti  Ti3710  1  0.87500000  0.43750000  0.87500000  1
  V  V3711  1  0.87500000  0.43750000  0.93750000  1
  V  V3712  1  0.87500000  0.50000000  0.00000000  1
  Cr  Cr3713  1  0.87500000  0.50000000  0.06250000  1
  V  V3714  1  0.87500000  0.50000000  0.12500000  1
  V  V3715  1  0.87500000  0.50000000  0.18750000  1
  Cr  Cr3716  1  0.87500000  0.50000000  0.25000000  1
  Cr  Cr3717  1  0.87500000  0.50000000  0.31250000  1
  V  V3718  1  0.87500000  0.50000000  0.37500000  1
  V  V3719  1  0.87500000  0.50000000  0.43750000  1
  V  V3720  1  0.87500000  0.50000000  0.50000000  1
  Ti  Ti3721  1  0.87500000  0.50000000  0.56250000  1
  V  V3722  1  0.87500000  0.50000000  0.62500000  1
  Ti  Ti3723  1  0.87500000  0.50000000  0.68750000  1
  V  V3724  1  0.87500000  0.50000000  0.75000000  1
  Ti  Ti3725  1  0.87500000  0.50000000  0.81250000  1
  V  V3726  1  0.87500000  0.50000000  0.87500000  1
  Cr  Cr3727  1  0.87500000  0.50000000  0.93750000  1
  Cr  Cr3728  1  0.87500000  0.56250000  0.00000000  1
  Cr  Cr3729  1  0.87500000  0.56250000  0.06250000  1
  V  V3730  1  0.87500000  0.56250000  0.12500000  1
  Cr  Cr3731  1  0.87500000  0.56250000  0.18750000  1
  Cr  Cr3732  1  0.87500000  0.56250000  0.25000000  1
  Cr  Cr3733  1  0.87500000  0.56250000  0.31250000  1
  V  V3734  1  0.87500000  0.56250000  0.37500000  1
  V  V3735  1  0.87500000  0.56250000  0.43750000  1
  V  V3736  1  0.87500000  0.56250000  0.50000000  1
  V  V3737  1  0.87500000  0.56250000  0.56250000  1
  Ti  Ti3738  1  0.87500000  0.56250000  0.62500000  1
  V  V3739  1  0.87500000  0.56250000  0.68750000  1
  Ti  Ti3740  1  0.87500000  0.56250000  0.75000000  1
  V  V3741  1  0.87500000  0.56250000  0.81250000  1
  Cr  Cr3742  1  0.87500000  0.56250000  0.87500000  1
  V  V3743  1  0.87500000  0.56250000  0.93750000  1
  Cr  Cr3744  1  0.87500000  0.62500000  0.00000000  1
  Cr  Cr3745  1  0.87500000  0.62500000  0.06250000  1
  Cr  Cr3746  1  0.87500000  0.62500000  0.12500000  1
  Cr  Cr3747  1  0.87500000  0.62500000  0.18750000  1
  V  V3748  1  0.87500000  0.62500000  0.25000000  1
  Cr  Cr3749  1  0.87500000  0.62500000  0.31250000  1
  V  V3750  1  0.87500000  0.62500000  0.37500000  1
  V  V3751  1  0.87500000  0.62500000  0.43750000  1
  V  V3752  1  0.87500000  0.62500000  0.50000000  1
  V  V3753  1  0.87500000  0.62500000  0.56250000  1
  V  V3754  1  0.87500000  0.62500000  0.62500000  1
  Ti  Ti3755  1  0.87500000  0.62500000  0.68750000  1
  V  V3756  1  0.87500000  0.62500000  0.75000000  1
  Cr  Cr3757  1  0.87500000  0.62500000  0.81250000  1
  V  V3758  1  0.87500000  0.62500000  0.87500000  1
  Cr  Cr3759  1  0.87500000  0.62500000  0.93750000  1
  V  V3760  1  0.87500000  0.68750000  0.00000000  1
  Cr  Cr3761  1  0.87500000  0.68750000  0.06250000  1
  V  V3762  1  0.87500000  0.68750000  0.12500000  1
  V  V3763  1  0.87500000  0.68750000  0.18750000  1
  Cr  Cr3764  1  0.87500000  0.68750000  0.25000000  1
  V  V3765  1  0.87500000  0.68750000  0.31250000  1
  V  V3766  1  0.87500000  0.68750000  0.37500000  1
  V  V3767  1  0.87500000  0.68750000  0.43750000  1
  V  V3768  1  0.87500000  0.68750000  0.50000000  1
  V  V3769  1  0.87500000  0.68750000  0.56250000  1
  V  V3770  1  0.87500000  0.68750000  0.62500000  1
  V  V3771  1  0.87500000  0.68750000  0.68750000  1
  Cr  Cr3772  1  0.87500000  0.68750000  0.75000000  1
  V  V3773  1  0.87500000  0.68750000  0.81250000  1
  V  V3774  1  0.87500000  0.68750000  0.87500000  1
  V  V3775  1  0.87500000  0.68750000  0.93750000  1
  Cr  Cr3776  1  0.87500000  0.75000000  0.00000000  1
  V  V3777  1  0.87500000  0.75000000  0.06250000  1
  Cr  Cr3778  1  0.87500000  0.75000000  0.12500000  1
  Cr  Cr3779  1  0.87500000  0.75000000  0.18750000  1
  V  V3780  1  0.87500000  0.75000000  0.25000000  1
  Cr  Cr3781  1  0.87500000  0.75000000  0.31250000  1
  Cr  Cr3782  1  0.87500000  0.75000000  0.37500000  1
  V  V3783  1  0.87500000  0.75000000  0.43750000  1
  V  V3784  1  0.87500000  0.75000000  0.50000000  1
  V  V3785  1  0.87500000  0.75000000  0.56250000  1
  V  V3786  1  0.87500000  0.75000000  0.62500000  1
  V  V3787  1  0.87500000  0.75000000  0.68750000  1
  V  V3788  1  0.87500000  0.75000000  0.75000000  1
  V  V3789  1  0.87500000  0.75000000  0.81250000  1
  V  V3790  1  0.87500000  0.75000000  0.87500000  1
  V  V3791  1  0.87500000  0.75000000  0.93750000  1
  V  V3792  1  0.87500000  0.81250000  0.00000000  1
  Cr  Cr3793  1  0.87500000  0.81250000  0.06250000  1
  Cr  Cr3794  1  0.87500000  0.81250000  0.12500000  1
  V  V3795  1  0.87500000  0.81250000  0.18750000  1
  Cr  Cr3796  1  0.87500000  0.81250000  0.25000000  1
  Cr  Cr3797  1  0.87500000  0.81250000  0.31250000  1
  Cr  Cr3798  1  0.87500000  0.81250000  0.37500000  1
  V  V3799  1  0.87500000  0.81250000  0.43750000  1
  V  V3800  1  0.87500000  0.81250000  0.50000000  1
  V  V3801  1  0.87500000  0.81250000  0.56250000  1
  V  V3802  1  0.87500000  0.81250000  0.62500000  1
  V  V3803  1  0.87500000  0.81250000  0.68750000  1
  V  V3804  1  0.87500000  0.81250000  0.75000000  1
  V  V3805  1  0.87500000  0.81250000  0.81250000  1
  V  V3806  1  0.87500000  0.81250000  0.87500000  1
  V  V3807  1  0.87500000  0.81250000  0.93750000  1
  V  V3808  1  0.87500000  0.87500000  0.00000000  1
  Cr  Cr3809  1  0.87500000  0.87500000  0.06250000  1
  V  V3810  1  0.87500000  0.87500000  0.12500000  1
  Cr  Cr3811  1  0.87500000  0.87500000  0.18750000  1
  Cr  Cr3812  1  0.87500000  0.87500000  0.25000000  1
  Cr  Cr3813  1  0.87500000  0.87500000  0.31250000  1
  V  V3814  1  0.87500000  0.87500000  0.37500000  1
  V  V3815  1  0.87500000  0.87500000  0.43750000  1
  V  V3816  1  0.87500000  0.87500000  0.50000000  1
  V  V3817  1  0.87500000  0.87500000  0.56250000  1
  V  V3818  1  0.87500000  0.87500000  0.62500000  1
  V  V3819  1  0.87500000  0.87500000  0.68750000  1
  V  V3820  1  0.87500000  0.87500000  0.75000000  1
  V  V3821  1  0.87500000  0.87500000  0.81250000  1
  V  V3822  1  0.87500000  0.87500000  0.87500000  1
  V  V3823  1  0.87500000  0.87500000  0.93750000  1
  V  V3824  1  0.87500000  0.93750000  0.00000000  1
  V  V3825  1  0.87500000  0.93750000  0.06250000  1
  Cr  Cr3826  1  0.87500000  0.93750000  0.12500000  1
  Cr  Cr3827  1  0.87500000  0.93750000  0.18750000  1
  V  V3828  1  0.87500000  0.93750000  0.25000000  1
  V  V3829  1  0.87500000  0.93750000  0.31250000  1
  V  V3830  1  0.87500000  0.93750000  0.37500000  1
  Cr  Cr3831  1  0.87500000  0.93750000  0.43750000  1
  V  V3832  1  0.87500000  0.93750000  0.50000000  1
  V  V3833  1  0.87500000  0.93750000  0.56250000  1
  V  V3834  1  0.87500000  0.93750000  0.62500000  1
  V  V3835  1  0.87500000  0.93750000  0.68750000  1
  V  V3836  1  0.87500000  0.93750000  0.75000000  1
  V  V3837  1  0.87500000  0.93750000  0.81250000  1
  V  V3838  1  0.87500000  0.93750000  0.87500000  1
  V  V3839  1  0.87500000  0.93750000  0.93750000  1
  V  V3840  1  0.93750000  0.00000000  0.00000000  1
  Cr  Cr3841  1  0.93750000  0.00000000  0.06250000  1
  Cr  Cr3842  1  0.93750000  0.00000000  0.12500000  1
  V  V3843  1  0.93750000  0.00000000  0.18750000  1
  Cr  Cr3844  1  0.93750000  0.00000000  0.25000000  1
  Cr  Cr3845  1  0.93750000  0.00000000  0.31250000  1
  Cr  Cr3846  1  0.93750000  0.00000000  0.37500000  1
  Cr  Cr3847  1  0.93750000  0.00000000  0.43750000  1
  V  V3848  1  0.93750000  0.00000000  0.50000000  1
  V  V3849  1  0.93750000  0.00000000  0.56250000  1
  V  V3850  1  0.93750000  0.00000000  0.62500000  1
  V  V3851  1  0.93750000  0.00000000  0.68750000  1
  V  V3852  1  0.93750000  0.00000000  0.75000000  1
  V  V3853  1  0.93750000  0.00000000  0.81250000  1
  V  V3854  1  0.93750000  0.00000000  0.87500000  1
  V  V3855  1  0.93750000  0.00000000  0.93750000  1
  V  V3856  1  0.93750000  0.06250000  0.00000000  1
  V  V3857  1  0.93750000  0.06250000  0.06250000  1
  Cr  Cr3858  1  0.93750000  0.06250000  0.12500000  1
  V  V3859  1  0.93750000  0.06250000  0.18750000  1
  Cr  Cr3860  1  0.93750000  0.06250000  0.25000000  1
  Cr  Cr3861  1  0.93750000  0.06250000  0.31250000  1
  V  V3862  1  0.93750000  0.06250000  0.37500000  1
  V  V3863  1  0.93750000  0.06250000  0.43750000  1
  Cr  Cr3864  1  0.93750000  0.06250000  0.50000000  1
  V  V3865  1  0.93750000  0.06250000  0.56250000  1
  V  V3866  1  0.93750000  0.06250000  0.62500000  1
  V  V3867  1  0.93750000  0.06250000  0.68750000  1
  V  V3868  1  0.93750000  0.06250000  0.75000000  1
  V  V3869  1  0.93750000  0.06250000  0.81250000  1
  V  V3870  1  0.93750000  0.06250000  0.87500000  1
  V  V3871  1  0.93750000  0.06250000  0.93750000  1
  V  V3872  1  0.93750000  0.12500000  0.00000000  1
  V  V3873  1  0.93750000  0.12500000  0.06250000  1
  V  V3874  1  0.93750000  0.12500000  0.12500000  1
  Cr  Cr3875  1  0.93750000  0.12500000  0.18750000  1
  Cr  Cr3876  1  0.93750000  0.12500000  0.25000000  1
  V  V3877  1  0.93750000  0.12500000  0.31250000  1
  V  V3878  1  0.93750000  0.12500000  0.37500000  1
  Cr  Cr3879  1  0.93750000  0.12500000  0.43750000  1
  Cr  Cr3880  1  0.93750000  0.12500000  0.50000000  1
  V  V3881  1  0.93750000  0.12500000  0.56250000  1
  Cr  Cr3882  1  0.93750000  0.12500000  0.62500000  1
  V  V3883  1  0.93750000  0.12500000  0.68750000  1
  V  V3884  1  0.93750000  0.12500000  0.75000000  1
  V  V3885  1  0.93750000  0.12500000  0.81250000  1
  V  V3886  1  0.93750000  0.12500000  0.87500000  1
  V  V3887  1  0.93750000  0.12500000  0.93750000  1
  V  V3888  1  0.93750000  0.18750000  0.00000000  1
  Cr  Cr3889  1  0.93750000  0.18750000  0.06250000  1
  V  V3890  1  0.93750000  0.18750000  0.12500000  1
  Cr  Cr3891  1  0.93750000  0.18750000  0.18750000  1
  V  V3892  1  0.93750000  0.18750000  0.25000000  1
  Cr  Cr3893  1  0.93750000  0.18750000  0.31250000  1
  Cr  Cr3894  1  0.93750000  0.18750000  0.37500000  1
  Cr  Cr3895  1  0.93750000  0.18750000  0.43750000  1
  V  V3896  1  0.93750000  0.18750000  0.50000000  1
  Ti  Ti3897  1  0.93750000  0.18750000  0.56250000  1
  V  V3898  1  0.93750000  0.18750000  0.62500000  1
  Ti  Ti3899  1  0.93750000  0.18750000  0.68750000  1
  V  V3900  1  0.93750000  0.18750000  0.75000000  1
  Ti  Ti3901  1  0.93750000  0.18750000  0.81250000  1
  V  V3902  1  0.93750000  0.18750000  0.87500000  1
  V  V3903  1  0.93750000  0.18750000  0.93750000  1
  Ti  Ti3904  1  0.93750000  0.25000000  0.00000000  1
  V  V3905  1  0.93750000  0.25000000  0.06250000  1
  Cr  Cr3906  1  0.93750000  0.25000000  0.12500000  1
  Cr  Cr3907  1  0.93750000  0.25000000  0.18750000  1
  V  V3908  1  0.93750000  0.25000000  0.25000000  1
  Cr  Cr3909  1  0.93750000  0.25000000  0.31250000  1
  Cr  Cr3910  1  0.93750000  0.25000000  0.37500000  1
  V  V3911  1  0.93750000  0.25000000  0.43750000  1
  Ti  Ti3912  1  0.93750000  0.25000000  0.50000000  1
  V  V3913  1  0.93750000  0.25000000  0.56250000  1
  Ti  Ti3914  1  0.93750000  0.25000000  0.62500000  1
  V  V3915  1  0.93750000  0.25000000  0.68750000  1
  Ti  Ti3916  1  0.93750000  0.25000000  0.75000000  1
  V  V3917  1  0.93750000  0.25000000  0.81250000  1
  Ti  Ti3918  1  0.93750000  0.25000000  0.87500000  1
  V  V3919  1  0.93750000  0.25000000  0.93750000  1
  V  V3920  1  0.93750000  0.31250000  0.00000000  1
  Cr  Cr3921  1  0.93750000  0.31250000  0.06250000  1
  V  V3922  1  0.93750000  0.31250000  0.12500000  1
  V  V3923  1  0.93750000  0.31250000  0.18750000  1
  Cr  Cr3924  1  0.93750000  0.31250000  0.25000000  1
  Cr  Cr3925  1  0.93750000  0.31250000  0.31250000  1
  Cr  Cr3926  1  0.93750000  0.31250000  0.37500000  1
  Cr  Cr3927  1  0.93750000  0.31250000  0.43750000  1
  V  V3928  1  0.93750000  0.31250000  0.50000000  1
  Ti  Ti3929  1  0.93750000  0.31250000  0.56250000  1
  V  V3930  1  0.93750000  0.31250000  0.62500000  1
  Ti  Ti3931  1  0.93750000  0.31250000  0.68750000  1
  V  V3932  1  0.93750000  0.31250000  0.75000000  1
  Ti  Ti3933  1  0.93750000  0.31250000  0.81250000  1
  V  V3934  1  0.93750000  0.31250000  0.87500000  1
  Ti  Ti3935  1  0.93750000  0.31250000  0.93750000  1
  Ti  Ti3936  1  0.93750000  0.37500000  0.00000000  1
  V  V3937  1  0.93750000  0.37500000  0.06250000  1
  Cr  Cr3938  1  0.93750000  0.37500000  0.12500000  1
  Cr  Cr3939  1  0.93750000  0.37500000  0.18750000  1
  Cr  Cr3940  1  0.93750000  0.37500000  0.25000000  1
  Cr  Cr3941  1  0.93750000  0.37500000  0.31250000  1
  V  V3942  1  0.93750000  0.37500000  0.37500000  1
  V  V3943  1  0.93750000  0.37500000  0.43750000  1
  Ti  Ti3944  1  0.93750000  0.37500000  0.50000000  1
  V  V3945  1  0.93750000  0.37500000  0.56250000  1
  Ti  Ti3946  1  0.93750000  0.37500000  0.62500000  1
  V  V3947  1  0.93750000  0.37500000  0.68750000  1
  Ti  Ti3948  1  0.93750000  0.37500000  0.75000000  1
  V  V3949  1  0.93750000  0.37500000  0.81250000  1
  Ti  Ti3950  1  0.93750000  0.37500000  0.87500000  1
  V  V3951  1  0.93750000  0.37500000  0.93750000  1
  V  V3952  1  0.93750000  0.43750000  0.00000000  1
  Cr  Cr3953  1  0.93750000  0.43750000  0.06250000  1
  V  V3954  1  0.93750000  0.43750000  0.12500000  1
  V  V3955  1  0.93750000  0.43750000  0.18750000  1
  Cr  Cr3956  1  0.93750000  0.43750000  0.25000000  1
  Cr  Cr3957  1  0.93750000  0.43750000  0.31250000  1
  V  V3958  1  0.93750000  0.43750000  0.37500000  1
  Cr  Cr3959  1  0.93750000  0.43750000  0.43750000  1
  V  V3960  1  0.93750000  0.43750000  0.50000000  1
  Ti  Ti3961  1  0.93750000  0.43750000  0.56250000  1
  V  V3962  1  0.93750000  0.43750000  0.62500000  1
  Ti  Ti3963  1  0.93750000  0.43750000  0.68750000  1
  V  V3964  1  0.93750000  0.43750000  0.75000000  1
  Ti  Ti3965  1  0.93750000  0.43750000  0.81250000  1
  V  V3966  1  0.93750000  0.43750000  0.87500000  1
  Ti  Ti3967  1  0.93750000  0.43750000  0.93750000  1
  Ti  Ti3968  1  0.93750000  0.50000000  0.00000000  1
  V  V3969  1  0.93750000  0.50000000  0.06250000  1
  Cr  Cr3970  1  0.93750000  0.50000000  0.12500000  1
  Cr  Cr3971  1  0.93750000  0.50000000  0.18750000  1
  Cr  Cr3972  1  0.93750000  0.50000000  0.25000000  1
  V  V3973  1  0.93750000  0.50000000  0.31250000  1
  V  V3974  1  0.93750000  0.50000000  0.37500000  1
  V  V3975  1  0.93750000  0.50000000  0.43750000  1
  Ti  Ti3976  1  0.93750000  0.50000000  0.50000000  1
  V  V3977  1  0.93750000  0.50000000  0.56250000  1
  Ti  Ti3978  1  0.93750000  0.50000000  0.62500000  1
  V  V3979  1  0.93750000  0.50000000  0.68750000  1
  Ti  Ti3980  1  0.93750000  0.50000000  0.75000000  1
  V  V3981  1  0.93750000  0.50000000  0.81250000  1
  Ti  Ti3982  1  0.93750000  0.50000000  0.87500000  1
  V  V3983  1  0.93750000  0.50000000  0.93750000  1
  V  V3984  1  0.93750000  0.56250000  0.00000000  1
  Cr  Cr3985  1  0.93750000  0.56250000  0.06250000  1
  Cr  Cr3986  1  0.93750000  0.56250000  0.12500000  1
  Cr  Cr3987  1  0.93750000  0.56250000  0.18750000  1
  Cr  Cr3988  1  0.93750000  0.56250000  0.25000000  1
  V  V3989  1  0.93750000  0.56250000  0.31250000  1
  Cr  Cr3990  1  0.93750000  0.56250000  0.37500000  1
  V  V3991  1  0.93750000  0.56250000  0.43750000  1
  V  V3992  1  0.93750000  0.56250000  0.50000000  1
  Ti  Ti3993  1  0.93750000  0.56250000  0.56250000  1
  V  V3994  1  0.93750000  0.56250000  0.62500000  1
  Ti  Ti3995  1  0.93750000  0.56250000  0.68750000  1
  V  V3996  1  0.93750000  0.56250000  0.75000000  1
  Ti  Ti3997  1  0.93750000  0.56250000  0.81250000  1
  V  V3998  1  0.93750000  0.56250000  0.87500000  1
  Ti  Ti3999  1  0.93750000  0.56250000  0.93750000  1
  Cr  Cr4000  1  0.93750000  0.62500000  0.00000000  1
  V  V4001  1  0.93750000  0.62500000  0.06250000  1
  V  V4002  1  0.93750000  0.62500000  0.12500000  1
  Cr  Cr4003  1  0.93750000  0.62500000  0.18750000  1
  V  V4004  1  0.93750000  0.62500000  0.25000000  1
  V  V4005  1  0.93750000  0.62500000  0.31250000  1
  Cr  Cr4006  1  0.93750000  0.62500000  0.37500000  1
  V  V4007  1  0.93750000  0.62500000  0.43750000  1
  V  V4008  1  0.93750000  0.62500000  0.50000000  1
  V  V4009  1  0.93750000  0.62500000  0.56250000  1
  Ti  Ti4010  1  0.93750000  0.62500000  0.62500000  1
  V  V4011  1  0.93750000  0.62500000  0.68750000  1
  Ti  Ti4012  1  0.93750000  0.62500000  0.75000000  1
  V  V4013  1  0.93750000  0.62500000  0.81250000  1
  Ti  Ti4014  1  0.93750000  0.62500000  0.87500000  1
  V  V4015  1  0.93750000  0.62500000  0.93750000  1
  V  V4016  1  0.93750000  0.68750000  0.00000000  1
  V  V4017  1  0.93750000  0.68750000  0.06250000  1
  Cr  Cr4018  1  0.93750000  0.68750000  0.12500000  1
  V  V4019  1  0.93750000  0.68750000  0.18750000  1
  Cr  Cr4020  1  0.93750000  0.68750000  0.25000000  1
  V  V4021  1  0.93750000  0.68750000  0.31250000  1
  Cr  Cr4022  1  0.93750000  0.68750000  0.37500000  1
  V  V4023  1  0.93750000  0.68750000  0.43750000  1
  V  V4024  1  0.93750000  0.68750000  0.50000000  1
  V  V4025  1  0.93750000  0.68750000  0.56250000  1
  V  V4026  1  0.93750000  0.68750000  0.62500000  1
  Ti  Ti4027  1  0.93750000  0.68750000  0.68750000  1
  V  V4028  1  0.93750000  0.68750000  0.75000000  1
  Ti  Ti4029  1  0.93750000  0.68750000  0.81250000  1
  V  V4030  1  0.93750000  0.68750000  0.87500000  1
  Cr  Cr4031  1  0.93750000  0.68750000  0.93750000  1
  Cr  Cr4032  1  0.93750000  0.75000000  0.00000000  1
  Cr  Cr4033  1  0.93750000  0.75000000  0.06250000  1
  Cr  Cr4034  1  0.93750000  0.75000000  0.12500000  1
  V  V4035  1  0.93750000  0.75000000  0.18750000  1
  Cr  Cr4036  1  0.93750000  0.75000000  0.25000000  1
  V  V4037  1  0.93750000  0.75000000  0.31250000  1
  Cr  Cr4038  1  0.93750000  0.75000000  0.37500000  1
  Cr  Cr4039  1  0.93750000  0.75000000  0.43750000  1
  V  V4040  1  0.93750000  0.75000000  0.50000000  1
  V  V4041  1  0.93750000  0.75000000  0.56250000  1
  V  V4042  1  0.93750000  0.75000000  0.62500000  1
  V  V4043  1  0.93750000  0.75000000  0.68750000  1
  Cr  Cr4044  1  0.93750000  0.75000000  0.75000000  1
  V  V4045  1  0.93750000  0.75000000  0.81250000  1
  V  V4046  1  0.93750000  0.75000000  0.87500000  1
  V  V4047  1  0.93750000  0.75000000  0.93750000  1
  Cr  Cr4048  1  0.93750000  0.81250000  0.00000000  1
  V  V4049  1  0.93750000  0.81250000  0.06250000  1
  Cr  Cr4050  1  0.93750000  0.81250000  0.12500000  1
  V  V4051  1  0.93750000  0.81250000  0.18750000  1
  Cr  Cr4052  1  0.93750000  0.81250000  0.25000000  1
  Cr  Cr4053  1  0.93750000  0.81250000  0.31250000  1
  V  V4054  1  0.93750000  0.81250000  0.37500000  1
  Cr  Cr4055  1  0.93750000  0.81250000  0.43750000  1
  V  V4056  1  0.93750000  0.81250000  0.50000000  1
  V  V4057  1  0.93750000  0.81250000  0.56250000  1
  V  V4058  1  0.93750000  0.81250000  0.62500000  1
  V  V4059  1  0.93750000  0.81250000  0.68750000  1
  V  V4060  1  0.93750000  0.81250000  0.75000000  1
  V  V4061  1  0.93750000  0.81250000  0.81250000  1
  V  V4062  1  0.93750000  0.81250000  0.87500000  1
  V  V4063  1  0.93750000  0.81250000  0.93750000  1
  V  V4064  1  0.93750000  0.87500000  0.00000000  1
  V  V4065  1  0.93750000  0.87500000  0.06250000  1
  Cr  Cr4066  1  0.93750000  0.87500000  0.12500000  1
  V  V4067  1  0.93750000  0.87500000  0.18750000  1
  Cr  Cr4068  1  0.93750000  0.87500000  0.25000000  1
  V  V4069  1  0.93750000  0.87500000  0.31250000  1
  V  V4070  1  0.93750000  0.87500000  0.37500000  1
  Cr  Cr4071  1  0.93750000  0.87500000  0.43750000  1
  V  V4072  1  0.93750000  0.87500000  0.50000000  1
  V  V4073  1  0.93750000  0.87500000  0.56250000  1
  V  V4074  1  0.93750000  0.87500000  0.62500000  1
  V  V4075  1  0.93750000  0.87500000  0.68750000  1
  V  V4076  1  0.93750000  0.87500000  0.75000000  1
  V  V4077  1  0.93750000  0.87500000  0.81250000  1
  V  V4078  1  0.93750000  0.87500000  0.87500000  1
  V  V4079  1  0.93750000  0.87500000  0.93750000  1
  V  V4080  1  0.93750000  0.93750000  0.00000000  1
  V  V4081  1  0.93750000  0.93750000  0.06250000  1
  Cr  Cr4082  1  0.93750000  0.93750000  0.12500000  1
  V  V4083  1  0.93750000  0.93750000  0.18750000  1
  Cr  Cr4084  1  0.93750000  0.93750000  0.25000000  1
  V  V4085  1  0.93750000  0.93750000  0.31250000  1
  Cr  Cr4086  1  0.93750000  0.93750000  0.37500000  1
  Cr  Cr4087  1  0.93750000  0.93750000  0.43750000  1
  V  V4088  1  0.93750000  0.93750000  0.50000000  1
  V  V4089  1  0.93750000  0.93750000  0.56250000  1
  V  V4090  1  0.93750000  0.93750000  0.62500000  1
  V  V4091  1  0.93750000  0.93750000  0.68750000  1
  V  V4092  1  0.93750000  0.93750000  0.75000000  1
  V  V4093  1  0.93750000  0.93750000  0.81250000  1
  V  V4094  1  0.93750000  0.93750000  0.87500000  1
  V  V4095  1  0.93750000  0.93750000  0.93750000  1
