# generated using pymatgen
data_Zr189Ti107V1056(CrW)188
_symmetry_space_group_name_H-M   'P 1'
_cell_length_a   31.28083764
_cell_length_b   31.28083764
_cell_length_c   31.28083764
_cell_angle_alpha   109.47122063
_cell_angle_beta   109.47122063
_cell_angle_gamma   109.47122063
_symmetry_Int_Tables_number   1
_chemical_formula_structural   Zr189Ti107V1056(CrW)188
_chemical_formula_sum   'Zr189 Ti107 V1056 Cr188 W188'
_cell_volume   23562.05859289
_cell_formula_units_Z   1
loop_
 _symmetry_equiv_pos_site_id
 _symmetry_equiv_pos_as_xyz
  1  'x, y, z'
loop_
 _atom_site_type_symbol
 _atom_site_label
 _atom_site_symmetry_multiplicity
 _atom_site_fract_x
 _atom_site_fract_y
 _atom_site_fract_z
 _atom_site_occupancy
  W  W0  1  0.00000000  0.00000000  0.00000000  1
  Cr  Cr1  1  0.00000000  0.00000000  0.08333333  1
  Zr  Zr2  1  0.00000000  0.00000000  0.16666667  1
  W  W3  1  0.00000000  0.00000000  0.25000000  1
  Cr  Cr4  1  0.00000000  0.00000000  0.33333333  1
  Ti  Ti5  1  0.00000000  0.00000000  0.41666667  1
  W  W6  1  0.00000000  0.00000000  0.50000000  1
  V  V7  1  0.00000000  0.00000000  0.58333333  1
  V  V8  1  0.00000000  0.00000000  0.66666667  1
  V  V9  1  0.00000000  0.00000000  0.75000000  1
  V  V10  1  0.00000000  0.00000000  0.83333333  1
  V  V11  1  0.00000000  0.00000000  0.91666667  1
  V  V12  1  0.00000000  0.08333333  0.00000000  1
  V  V13  1  0.00000000  0.08333333  0.08333333  1
  Ti  Ti14  1  0.00000000  0.08333333  0.16666667  1
  Zr  Zr15  1  0.00000000  0.08333333  0.25000000  1
  V  V16  1  0.00000000  0.08333333  0.33333333  1
  V  V17  1  0.00000000  0.08333333  0.41666667  1
  V  V18  1  0.00000000  0.08333333  0.50000000  1
  V  V19  1  0.00000000  0.08333333  0.58333333  1
  Cr  Cr20  1  0.00000000  0.08333333  0.66666667  1
  Ti  Ti21  1  0.00000000  0.08333333  0.75000000  1
  V  V22  1  0.00000000  0.08333333  0.83333333  1
  W  W23  1  0.00000000  0.08333333  0.91666667  1
  V  V24  1  0.00000000  0.16666667  0.00000000  1
  V  V25  1  0.00000000  0.16666667  0.08333333  1
  V  V26  1  0.00000000  0.16666667  0.16666667  1
  Cr  Cr27  1  0.00000000  0.16666667  0.25000000  1
  V  V28  1  0.00000000  0.16666667  0.33333333  1
  V  V29  1  0.00000000  0.16666667  0.41666667  1
  Ti  Ti30  1  0.00000000  0.16666667  0.50000000  1
  Zr  Zr31  1  0.00000000  0.16666667  0.58333333  1
  V  V32  1  0.00000000  0.16666667  0.66666667  1
  V  V33  1  0.00000000  0.16666667  0.75000000  1
  V  V34  1  0.00000000  0.16666667  0.83333333  1
  V  V35  1  0.00000000  0.16666667  0.91666667  1
  Cr  Cr36  1  0.00000000  0.25000000  0.00000000  1
  V  V37  1  0.00000000  0.25000000  0.08333333  1
  Ti  Ti38  1  0.00000000  0.25000000  0.16666667  1
  V  V39  1  0.00000000  0.25000000  0.25000000  1
  V  V40  1  0.00000000  0.25000000  0.33333333  1
  V  V41  1  0.00000000  0.25000000  0.41666667  1
  V  V42  1  0.00000000  0.25000000  0.50000000  1
  V  V43  1  0.00000000  0.25000000  0.58333333  1
  V  V44  1  0.00000000  0.25000000  0.66666667  1
  Ti  Ti45  1  0.00000000  0.25000000  0.75000000  1
  Ti  Ti46  1  0.00000000  0.25000000  0.83333333  1
  V  V47  1  0.00000000  0.25000000  0.91666667  1
  V  V48  1  0.00000000  0.33333333  0.00000000  1
  V  V49  1  0.00000000  0.33333333  0.08333333  1
  Cr  Cr50  1  0.00000000  0.33333333  0.16666667  1
  V  V51  1  0.00000000  0.33333333  0.25000000  1
  V  V52  1  0.00000000  0.33333333  0.33333333  1
  W  W53  1  0.00000000  0.33333333  0.41666667  1
  Zr  Zr54  1  0.00000000  0.33333333  0.50000000  1
  V  V55  1  0.00000000  0.33333333  0.58333333  1
  V  V56  1  0.00000000  0.33333333  0.66666667  1
  V  V57  1  0.00000000  0.33333333  0.75000000  1
  Zr  Zr58  1  0.00000000  0.33333333  0.83333333  1
  Zr  Zr59  1  0.00000000  0.33333333  0.91666667  1
  Zr  Zr60  1  0.00000000  0.41666667  0.00000000  1
  Cr  Cr61  1  0.00000000  0.41666667  0.08333333  1
  Zr  Zr62  1  0.00000000  0.41666667  0.16666667  1
  V  V63  1  0.00000000  0.41666667  0.25000000  1
  V  V64  1  0.00000000  0.41666667  0.33333333  1
  V  V65  1  0.00000000  0.41666667  0.41666667  1
  V  V66  1  0.00000000  0.41666667  0.50000000  1
  V  V67  1  0.00000000  0.41666667  0.58333333  1
  W  W68  1  0.00000000  0.41666667  0.66666667  1
  V  V69  1  0.00000000  0.41666667  0.75000000  1
  V  V70  1  0.00000000  0.41666667  0.83333333  1
  W  W71  1  0.00000000  0.41666667  0.91666667  1
  V  V72  1  0.00000000  0.50000000  0.00000000  1
  Cr  Cr73  1  0.00000000  0.50000000  0.08333333  1
  W  W74  1  0.00000000  0.50000000  0.16666667  1
  V  V75  1  0.00000000  0.50000000  0.25000000  1
  V  V76  1  0.00000000  0.50000000  0.33333333  1
  Cr  Cr77  1  0.00000000  0.50000000  0.41666667  1
  V  V78  1  0.00000000  0.50000000  0.50000000  1
  V  V79  1  0.00000000  0.50000000  0.58333333  1
  V  V80  1  0.00000000  0.50000000  0.66666667  1
  Cr  Cr81  1  0.00000000  0.50000000  0.75000000  1
  V  V82  1  0.00000000  0.50000000  0.83333333  1
  Ti  Ti83  1  0.00000000  0.50000000  0.91666667  1
  V  V84  1  0.00000000  0.58333333  0.00000000  1
  W  W85  1  0.00000000  0.58333333  0.08333333  1
  V  V86  1  0.00000000  0.58333333  0.16666667  1
  V  V87  1  0.00000000  0.58333333  0.25000000  1
  Zr  Zr88  1  0.00000000  0.58333333  0.33333333  1
  W  W89  1  0.00000000  0.58333333  0.41666667  1
  W  W90  1  0.00000000  0.58333333  0.50000000  1
  Cr  Cr91  1  0.00000000  0.58333333  0.58333333  1
  Cr  Cr92  1  0.00000000  0.58333333  0.66666667  1
  V  V93  1  0.00000000  0.58333333  0.75000000  1
  V  V94  1  0.00000000  0.58333333  0.83333333  1
  V  V95  1  0.00000000  0.58333333  0.91666667  1
  Zr  Zr96  1  1.00000000  0.66666667  1.00000000  1
  V  V97  1  1.00000000  0.66666667  0.08333333  1
  V  V98  1  1.00000000  0.66666667  0.16666667  1
  V  V99  1  1.00000000  0.66666667  0.25000000  1
  V  V100  1  1.00000000  0.66666667  0.33333333  1
  V  V101  1  1.00000000  0.66666667  0.41666667  1
  Cr  Cr102  1  1.00000000  0.66666667  0.50000000  1
  V  V103  1  1.00000000  0.66666667  0.58333333  1
  V  V104  1  1.00000000  0.66666667  0.66666667  1
  V  V105  1  1.00000000  0.66666667  0.75000000  1
  Cr  Cr106  1  1.00000000  0.66666667  0.83333333  1
  V  V107  1  1.00000000  0.66666667  0.91666667  1
  W  W108  1  1.00000000  0.75000000  1.00000000  1
  V  V109  1  1.00000000  0.75000000  0.08333333  1
  V  V110  1  1.00000000  0.75000000  0.16666667  1
  Zr  Zr111  1  1.00000000  0.75000000  0.25000000  1
  V  V112  1  1.00000000  0.75000000  0.33333333  1
  V  V113  1  1.00000000  0.75000000  0.41666667  1
  V  V114  1  1.00000000  0.75000000  0.50000000  1
  V  V115  1  1.00000000  0.75000000  0.58333333  1
  Cr  Cr116  1  1.00000000  0.75000000  0.66666667  1
  V  V117  1  1.00000000  0.75000000  0.75000000  1
  W  W118  1  1.00000000  0.75000000  0.83333333  1
  W  W119  1  1.00000000  0.75000000  0.91666667  1
  V  V120  1  1.00000000  0.83333333  1.00000000  1
  Ti  Ti121  1  1.00000000  0.83333333  0.08333333  1
  Ti  Ti122  1  1.00000000  0.83333333  0.16666667  1
  V  V123  1  1.00000000  0.83333333  0.25000000  1
  V  V124  1  1.00000000  0.83333333  0.33333333  1
  Zr  Zr125  1  1.00000000  0.83333333  0.41666667  1
  V  V126  1  1.00000000  0.83333333  0.50000000  1
  V  V127  1  1.00000000  0.83333333  0.58333333  1
  V  V128  1  1.00000000  0.83333333  0.66666667  1
  Cr  Cr129  1  1.00000000  0.83333333  0.75000000  1
  Ti  Ti130  1  1.00000000  0.83333333  0.83333333  1
  Ti  Ti131  1  1.00000000  0.83333333  0.91666667  1
  V  V132  1  1.00000000  0.91666667  1.00000000  1
  V  V133  1  1.00000000  0.91666667  0.08333333  1
  Ti  Ti134  1  1.00000000  0.91666667  0.16666667  1
  Ti  Ti135  1  1.00000000  0.91666667  0.25000000  1
  Ti  Ti136  1  1.00000000  0.91666667  0.33333333  1
  V  V137  1  1.00000000  0.91666667  0.41666667  1
  Ti  Ti138  1  1.00000000  0.91666667  0.50000000  1
  V  V139  1  1.00000000  0.91666667  0.58333333  1
  Zr  Zr140  1  1.00000000  0.91666667  0.66666667  1
  Cr  Cr141  1  1.00000000  0.91666667  0.75000000  1
  V  V142  1  1.00000000  0.91666667  0.83333333  1
  V  V143  1  1.00000000  0.91666667  0.91666667  1
  V  V144  1  0.08333333  0.00000000  0.00000000  1
  V  V145  1  0.08333333  0.00000000  0.08333333  1
  Ti  Ti146  1  0.08333333  0.00000000  0.16666667  1
  W  W147  1  0.08333333  0.00000000  0.25000000  1
  V  V148  1  0.08333333  0.00000000  0.33333333  1
  Zr  Zr149  1  0.08333333  0.00000000  0.41666667  1
  V  V150  1  0.08333333  0.00000000  0.50000000  1
  Zr  Zr151  1  0.08333333  0.00000000  0.58333333  1
  V  V152  1  0.08333333  0.00000000  0.66666667  1
  V  V153  1  0.08333333  0.00000000  0.75000000  1
  W  W154  1  0.08333333  0.00000000  0.83333333  1
  V  V155  1  0.08333333  0.00000000  0.91666667  1
  Zr  Zr156  1  0.08333333  0.08333333  0.00000000  1
  Zr  Zr157  1  0.08333333  0.08333333  0.08333333  1
  Cr  Cr158  1  0.08333333  0.08333333  0.16666667  1
  Zr  Zr159  1  0.08333333  0.08333333  0.25000000  1
  V  V160  1  0.08333333  0.08333333  0.33333333  1
  V  V161  1  0.08333333  0.08333333  0.41666667  1
  V  V162  1  0.08333333  0.08333333  0.50000000  1
  Zr  Zr163  1  0.08333333  0.08333333  0.58333333  1
  V  V164  1  0.08333333  0.08333333  0.66666667  1
  V  V165  1  0.08333333  0.08333333  0.75000000  1
  V  V166  1  0.08333333  0.08333333  0.83333333  1
  V  V167  1  0.08333333  0.08333333  0.91666667  1
  Zr  Zr168  1  0.08333333  0.16666667  0.00000000  1
  Cr  Cr169  1  0.08333333  0.16666667  0.08333333  1
  V  V170  1  0.08333333  0.16666667  0.16666667  1
  Ti  Ti171  1  0.08333333  0.16666667  0.25000000  1
  V  V172  1  0.08333333  0.16666667  0.33333333  1
  V  V173  1  0.08333333  0.16666667  0.41666667  1
  V  V174  1  0.08333333  0.16666667  0.50000000  1
  V  V175  1  0.08333333  0.16666667  0.58333333  1
  V  V176  1  0.08333333  0.16666667  0.66666667  1
  W  W177  1  0.08333333  0.16666667  0.75000000  1
  V  V178  1  0.08333333  0.16666667  0.83333333  1
  V  V179  1  0.08333333  0.16666667  0.91666667  1
  V  V180  1  0.08333333  0.25000000  0.00000000  1
  W  W181  1  0.08333333  0.25000000  0.08333333  1
  V  V182  1  0.08333333  0.25000000  0.16666667  1
  V  V183  1  0.08333333  0.25000000  0.25000000  1
  Ti  Ti184  1  0.08333333  0.25000000  0.33333333  1
  V  V185  1  0.08333333  0.25000000  0.41666667  1
  Cr  Cr186  1  0.08333333  0.25000000  0.50000000  1
  Zr  Zr187  1  0.08333333  0.25000000  0.58333333  1
  Cr  Cr188  1  0.08333333  0.25000000  0.66666667  1
  W  W189  1  0.08333333  0.25000000  0.75000000  1
  V  V190  1  0.08333333  0.25000000  0.83333333  1
  V  V191  1  0.08333333  0.25000000  0.91666667  1
  Cr  Cr192  1  0.08333333  0.33333333  0.00000000  1
  Cr  Cr193  1  0.08333333  0.33333333  0.08333333  1
  Cr  Cr194  1  0.08333333  0.33333333  0.16666667  1
  V  V195  1  0.08333333  0.33333333  0.25000000  1
  V  V196  1  0.08333333  0.33333333  0.33333333  1
  Cr  Cr197  1  0.08333333  0.33333333  0.41666667  1
  Ti  Ti198  1  0.08333333  0.33333333  0.50000000  1
  Zr  Zr199  1  0.08333333  0.33333333  0.58333333  1
  Ti  Ti200  1  0.08333333  0.33333333  0.66666667  1
  Cr  Cr201  1  0.08333333  0.33333333  0.75000000  1
  Cr  Cr202  1  0.08333333  0.33333333  0.83333333  1
  V  V203  1  0.08333333  0.33333333  0.91666667  1
  V  V204  1  0.08333333  0.41666667  0.00000000  1
  Zr  Zr205  1  0.08333333  0.41666667  0.08333333  1
  V  V206  1  0.08333333  0.41666667  0.16666667  1
  Cr  Cr207  1  0.08333333  0.41666667  0.25000000  1
  V  V208  1  0.08333333  0.41666667  0.33333333  1
  V  V209  1  0.08333333  0.41666667  0.41666667  1
  V  V210  1  0.08333333  0.41666667  0.50000000  1
  Cr  Cr211  1  0.08333333  0.41666667  0.58333333  1
  V  V212  1  0.08333333  0.41666667  0.66666667  1
  V  V213  1  0.08333333  0.41666667  0.75000000  1
  V  V214  1  0.08333333  0.41666667  0.83333333  1
  V  V215  1  0.08333333  0.41666667  0.91666667  1
  W  W216  1  0.08333333  0.50000000  0.00000000  1
  Cr  Cr217  1  0.08333333  0.50000000  0.08333333  1
  V  V218  1  0.08333333  0.50000000  0.16666667  1
  V  V219  1  0.08333333  0.50000000  0.25000000  1
  V  V220  1  0.08333333  0.50000000  0.33333333  1
  Cr  Cr221  1  0.08333333  0.50000000  0.41666667  1
  V  V222  1  0.08333333  0.50000000  0.50000000  1
  V  V223  1  0.08333333  0.50000000  0.58333333  1
  Ti  Ti224  1  0.08333333  0.50000000  0.66666667  1
  V  V225  1  0.08333333  0.50000000  0.75000000  1
  V  V226  1  0.08333333  0.50000000  0.83333333  1
  V  V227  1  0.08333333  0.50000000  0.91666667  1
  V  V228  1  0.08333333  0.58333333  0.00000000  1
  V  V229  1  0.08333333  0.58333333  0.08333333  1
  V  V230  1  0.08333333  0.58333333  0.16666667  1
  W  W231  1  0.08333333  0.58333333  0.25000000  1
  V  V232  1  0.08333333  0.58333333  0.33333333  1
  V  V233  1  0.08333333  0.58333333  0.41666667  1
  V  V234  1  0.08333333  0.58333333  0.50000000  1
  V  V235  1  0.08333333  0.58333333  0.58333333  1
  V  V236  1  0.08333333  0.58333333  0.66666667  1
  V  V237  1  0.08333333  0.58333333  0.75000000  1
  Cr  Cr238  1  0.08333333  0.58333333  0.83333333  1
  Cr  Cr239  1  0.08333333  0.58333333  0.91666667  1
  Zr  Zr240  1  0.08333333  0.66666667  1.00000000  1
  V  V241  1  0.08333333  0.66666667  0.08333333  1
  V  V242  1  0.08333333  0.66666667  0.16666667  1
  Ti  Ti243  1  0.08333333  0.66666667  0.25000000  1
  V  V244  1  0.08333333  0.66666667  0.33333333  1
  V  V245  1  0.08333333  0.66666667  0.41666667  1
  Zr  Zr246  1  0.08333333  0.66666667  0.50000000  1
  W  W247  1  0.08333333  0.66666667  0.58333333  1
  Zr  Zr248  1  0.08333333  0.66666667  0.66666667  1
  Ti  Ti249  1  0.08333333  0.66666667  0.75000000  1
  V  V250  1  0.08333333  0.66666667  0.83333333  1
  Ti  Ti251  1  0.08333333  0.66666667  0.91666667  1
  Ti  Ti252  1  0.08333333  0.75000000  1.00000000  1
  Zr  Zr253  1  0.08333333  0.75000000  0.08333333  1
  Zr  Zr254  1  0.08333333  0.75000000  0.16666667  1
  Zr  Zr255  1  0.08333333  0.75000000  0.25000000  1
  V  V256  1  0.08333333  0.75000000  0.33333333  1
  W  W257  1  0.08333333  0.75000000  0.41666667  1
  Cr  Cr258  1  0.08333333  0.75000000  0.50000000  1
  V  V259  1  0.08333333  0.75000000  0.58333333  1
  V  V260  1  0.08333333  0.75000000  0.66666667  1
  V  V261  1  0.08333333  0.75000000  0.75000000  1
  Zr  Zr262  1  0.08333333  0.75000000  0.83333333  1
  V  V263  1  0.08333333  0.75000000  0.91666667  1
  V  V264  1  0.08333333  0.83333333  1.00000000  1
  V  V265  1  0.08333333  0.83333333  0.08333333  1
  Zr  Zr266  1  0.08333333  0.83333333  0.16666667  1
  Cr  Cr267  1  0.08333333  0.83333333  0.25000000  1
  Zr  Zr268  1  0.08333333  0.83333333  0.33333333  1
  V  V269  1  0.08333333  0.83333333  0.41666667  1
  V  V270  1  0.08333333  0.83333333  0.50000000  1
  Zr  Zr271  1  0.08333333  0.83333333  0.58333333  1
  V  V272  1  0.08333333  0.83333333  0.66666667  1
  V  V273  1  0.08333333  0.83333333  0.75000000  1
  W  W274  1  0.08333333  0.83333333  0.83333333  1
  V  V275  1  0.08333333  0.83333333  0.91666667  1
  Ti  Ti276  1  0.08333333  0.91666667  1.00000000  1
  V  V277  1  0.08333333  0.91666667  0.08333333  1
  Cr  Cr278  1  0.08333333  0.91666667  0.16666667  1
  V  V279  1  0.08333333  0.91666667  0.25000000  1
  V  V280  1  0.08333333  0.91666667  0.33333333  1
  V  V281  1  0.08333333  0.91666667  0.41666667  1
  W  W282  1  0.08333333  0.91666667  0.50000000  1
  V  V283  1  0.08333333  0.91666667  0.58333333  1
  V  V284  1  0.08333333  0.91666667  0.66666667  1
  V  V285  1  0.08333333  0.91666667  0.75000000  1
  W  W286  1  0.08333333  0.91666667  0.83333333  1
  Cr  Cr287  1  0.08333333  0.91666667  0.91666667  1
  V  V288  1  0.16666667  0.00000000  0.00000000  1
  V  V289  1  0.16666667  0.00000000  0.08333333  1
  Zr  Zr290  1  0.16666667  0.00000000  0.16666667  1
  V  V291  1  0.16666667  0.00000000  0.25000000  1
  V  V292  1  0.16666667  0.00000000  0.33333333  1
  Cr  Cr293  1  0.16666667  0.00000000  0.41666667  1
  V  V294  1  0.16666667  0.00000000  0.50000000  1
  V  V295  1  0.16666667  0.00000000  0.58333333  1
  W  W296  1  0.16666667  0.00000000  0.66666667  1
  V  V297  1  0.16666667  0.00000000  0.75000000  1
  Cr  Cr298  1  0.16666667  0.00000000  0.83333333  1
  V  V299  1  0.16666667  0.00000000  0.91666667  1
  V  V300  1  0.16666667  0.08333333  0.00000000  1
  V  V301  1  0.16666667  0.08333333  0.08333333  1
  V  V302  1  0.16666667  0.08333333  0.16666667  1
  V  V303  1  0.16666667  0.08333333  0.25000000  1
  Cr  Cr304  1  0.16666667  0.08333333  0.33333333  1
  V  V305  1  0.16666667  0.08333333  0.41666667  1
  V  V306  1  0.16666667  0.08333333  0.50000000  1
  V  V307  1  0.16666667  0.08333333  0.58333333  1
  V  V308  1  0.16666667  0.08333333  0.66666667  1
  Cr  Cr309  1  0.16666667  0.08333333  0.75000000  1
  W  W310  1  0.16666667  0.08333333  0.83333333  1
  Zr  Zr311  1  0.16666667  0.08333333  0.91666667  1
  Zr  Zr312  1  0.16666667  0.16666667  0.00000000  1
  Cr  Cr313  1  0.16666667  0.16666667  0.08333333  1
  W  W314  1  0.16666667  0.16666667  0.16666667  1
  V  V315  1  0.16666667  0.16666667  0.25000000  1
  Cr  Cr316  1  0.16666667  0.16666667  0.33333333  1
  V  V317  1  0.16666667  0.16666667  0.41666667  1
  Zr  Zr318  1  0.16666667  0.16666667  0.50000000  1
  V  V319  1  0.16666667  0.16666667  0.58333333  1
  W  W320  1  0.16666667  0.16666667  0.66666667  1
  V  V321  1  0.16666667  0.16666667  0.75000000  1
  V  V322  1  0.16666667  0.16666667  0.83333333  1
  V  V323  1  0.16666667  0.16666667  0.91666667  1
  Zr  Zr324  1  0.16666667  0.25000000  0.00000000  1
  V  V325  1  0.16666667  0.25000000  0.08333333  1
  V  V326  1  0.16666667  0.25000000  0.16666667  1
  V  V327  1  0.16666667  0.25000000  0.25000000  1
  V  V328  1  0.16666667  0.25000000  0.33333333  1
  V  V329  1  0.16666667  0.25000000  0.41666667  1
  V  V330  1  0.16666667  0.25000000  0.50000000  1
  V  V331  1  0.16666667  0.25000000  0.58333333  1
  V  V332  1  0.16666667  0.25000000  0.66666667  1
  V  V333  1  0.16666667  0.25000000  0.75000000  1
  V  V334  1  0.16666667  0.25000000  0.83333333  1
  Zr  Zr335  1  0.16666667  0.25000000  0.91666667  1
  W  W336  1  0.16666667  0.33333333  1.00000000  1
  W  W337  1  0.16666667  0.33333333  0.08333333  1
  V  V338  1  0.16666667  0.33333333  0.16666667  1
  V  V339  1  0.16666667  0.33333333  0.25000000  1
  V  V340  1  0.16666667  0.33333333  0.33333333  1
  V  V341  1  0.16666667  0.33333333  0.41666667  1
  V  V342  1  0.16666667  0.33333333  0.50000000  1
  V  V343  1  0.16666667  0.33333333  0.58333333  1
  Cr  Cr344  1  0.16666667  0.33333333  0.66666667  1
  V  V345  1  0.16666667  0.33333333  0.75000000  1
  V  V346  1  0.16666667  0.33333333  0.83333333  1
  V  V347  1  0.16666667  0.33333333  0.91666667  1
  Ti  Ti348  1  0.16666667  0.41666667  0.00000000  1
  V  V349  1  0.16666667  0.41666667  0.08333333  1
  Ti  Ti350  1  0.16666667  0.41666667  0.16666667  1
  V  V351  1  0.16666667  0.41666667  0.25000000  1
  V  V352  1  0.16666667  0.41666667  0.33333333  1
  Ti  Ti353  1  0.16666667  0.41666667  0.41666667  1
  V  V354  1  0.16666667  0.41666667  0.50000000  1
  V  V355  1  0.16666667  0.41666667  0.58333333  1
  Cr  Cr356  1  0.16666667  0.41666667  0.66666667  1
  W  W357  1  0.16666667  0.41666667  0.75000000  1
  Cr  Cr358  1  0.16666667  0.41666667  0.83333333  1
  W  W359  1  0.16666667  0.41666667  0.91666667  1
  V  V360  1  0.16666667  0.50000000  0.00000000  1
  V  V361  1  0.16666667  0.50000000  0.08333333  1
  V  V362  1  0.16666667  0.50000000  0.16666667  1
  V  V363  1  0.16666667  0.50000000  0.25000000  1
  V  V364  1  0.16666667  0.50000000  0.33333333  1
  V  V365  1  0.16666667  0.50000000  0.41666667  1
  V  V366  1  0.16666667  0.50000000  0.50000000  1
  V  V367  1  0.16666667  0.50000000  0.58333333  1
  V  V368  1  0.16666667  0.50000000  0.66666667  1
  V  V369  1  0.16666667  0.50000000  0.75000000  1
  Zr  Zr370  1  0.16666667  0.50000000  0.83333333  1
  V  V371  1  0.16666667  0.50000000  0.91666667  1
  V  V372  1  0.16666667  0.58333333  0.00000000  1
  Cr  Cr373  1  0.16666667  0.58333333  0.08333333  1
  Cr  Cr374  1  0.16666667  0.58333333  0.16666667  1
  W  W375  1  0.16666667  0.58333333  0.25000000  1
  V  V376  1  0.16666667  0.58333333  0.33333333  1
  V  V377  1  0.16666667  0.58333333  0.41666667  1
  V  V378  1  0.16666667  0.58333333  0.50000000  1
  W  W379  1  0.16666667  0.58333333  0.58333333  1
  Ti  Ti380  1  0.16666667  0.58333333  0.66666667  1
  Ti  Ti381  1  0.16666667  0.58333333  0.75000000  1
  Zr  Zr382  1  0.16666667  0.58333333  0.83333333  1
  V  V383  1  0.16666667  0.58333333  0.91666667  1
  W  W384  1  0.16666667  0.66666667  1.00000000  1
  Zr  Zr385  1  0.16666667  0.66666667  0.08333333  1
  V  V386  1  0.16666667  0.66666667  0.16666667  1
  Cr  Cr387  1  0.16666667  0.66666667  0.25000000  1
  V  V388  1  0.16666667  0.66666667  0.33333333  1
  Zr  Zr389  1  0.16666667  0.66666667  0.41666667  1
  V  V390  1  0.16666667  0.66666667  0.50000000  1
  V  V391  1  0.16666667  0.66666667  0.58333333  1
  V  V392  1  0.16666667  0.66666667  0.66666667  1
  W  W393  1  0.16666667  0.66666667  0.75000000  1
  V  V394  1  0.16666667  0.66666667  0.83333333  1
  Cr  Cr395  1  0.16666667  0.66666667  0.91666667  1
  V  V396  1  0.16666667  0.75000000  1.00000000  1
  V  V397  1  0.16666667  0.75000000  0.08333333  1
  V  V398  1  0.16666667  0.75000000  0.16666667  1
  W  W399  1  0.16666667  0.75000000  0.25000000  1
  V  V400  1  0.16666667  0.75000000  0.33333333  1
  V  V401  1  0.16666667  0.75000000  0.41666667  1
  V  V402  1  0.16666667  0.75000000  0.50000000  1
  V  V403  1  0.16666667  0.75000000  0.58333333  1
  W  W404  1  0.16666667  0.75000000  0.66666667  1
  V  V405  1  0.16666667  0.75000000  0.75000000  1
  V  V406  1  0.16666667  0.75000000  0.83333333  1
  W  W407  1  0.16666667  0.75000000  0.91666667  1
  V  V408  1  0.16666667  0.83333333  0.00000000  1
  V  V409  1  0.16666667  0.83333333  0.08333333  1
  W  W410  1  0.16666667  0.83333333  0.16666667  1
  V  V411  1  0.16666667  0.83333333  0.25000000  1
  Zr  Zr412  1  0.16666667  0.83333333  0.33333333  1
  V  V413  1  0.16666667  0.83333333  0.41666667  1
  V  V414  1  0.16666667  0.83333333  0.50000000  1
  V  V415  1  0.16666667  0.83333333  0.58333333  1
  V  V416  1  0.16666667  0.83333333  0.66666667  1
  Cr  Cr417  1  0.16666667  0.83333333  0.75000000  1
  V  V418  1  0.16666667  0.83333333  0.83333333  1
  Cr  Cr419  1  0.16666667  0.83333333  0.91666667  1
  V  V420  1  0.16666667  0.91666667  1.00000000  1
  V  V421  1  0.16666667  0.91666667  0.08333333  1
  Cr  Cr422  1  0.16666667  0.91666667  0.16666667  1
  V  V423  1  0.16666667  0.91666667  0.25000000  1
  W  W424  1  0.16666667  0.91666667  0.33333333  1
  V  V425  1  0.16666667  0.91666667  0.41666667  1
  V  V426  1  0.16666667  0.91666667  0.50000000  1
  Cr  Cr427  1  0.16666667  0.91666667  0.58333333  1
  W  W428  1  0.16666667  0.91666667  0.66666667  1
  V  V429  1  0.16666667  0.91666667  0.75000000  1
  Ti  Ti430  1  0.16666667  0.91666667  0.83333333  1
  V  V431  1  0.16666667  0.91666667  0.91666667  1
  V  V432  1  0.25000000  0.00000000  0.00000000  1
  V  V433  1  0.25000000  0.00000000  0.08333333  1
  Zr  Zr434  1  0.25000000  0.00000000  0.16666667  1
  V  V435  1  0.25000000  0.00000000  0.25000000  1
  V  V436  1  0.25000000  0.00000000  0.33333333  1
  V  V437  1  0.25000000  0.00000000  0.41666667  1
  Zr  Zr438  1  0.25000000  0.00000000  0.50000000  1
  V  V439  1  0.25000000  0.00000000  0.58333333  1
  Cr  Cr440  1  0.25000000  0.00000000  0.66666667  1
  V  V441  1  0.25000000  0.00000000  0.75000000  1
  V  V442  1  0.25000000  0.00000000  0.83333333  1
  V  V443  1  0.25000000  0.00000000  0.91666667  1
  V  V444  1  0.25000000  0.08333333  0.00000000  1
  Zr  Zr445  1  0.25000000  0.08333333  0.08333333  1
  V  V446  1  0.25000000  0.08333333  0.16666667  1
  V  V447  1  0.25000000  0.08333333  0.25000000  1
  Zr  Zr448  1  0.25000000  0.08333333  0.33333333  1
  V  V449  1  0.25000000  0.08333333  0.41666667  1
  Ti  Ti450  1  0.25000000  0.08333333  0.50000000  1
  V  V451  1  0.25000000  0.08333333  0.58333333  1
  V  V452  1  0.25000000  0.08333333  0.66666667  1
  V  V453  1  0.25000000  0.08333333  0.75000000  1
  V  V454  1  0.25000000  0.08333333  0.83333333  1
  V  V455  1  0.25000000  0.08333333  0.91666667  1
  V  V456  1  0.25000000  0.16666667  0.00000000  1
  V  V457  1  0.25000000  0.16666667  0.08333333  1
  W  W458  1  0.25000000  0.16666667  0.16666667  1
  Zr  Zr459  1  0.25000000  0.16666667  0.25000000  1
  W  W460  1  0.25000000  0.16666667  0.33333333  1
  V  V461  1  0.25000000  0.16666667  0.41666667  1
  Zr  Zr462  1  0.25000000  0.16666667  0.50000000  1
  W  W463  1  0.25000000  0.16666667  0.58333333  1
  Cr  Cr464  1  0.25000000  0.16666667  0.66666667  1
  W  W465  1  0.25000000  0.16666667  0.75000000  1
  Zr  Zr466  1  0.25000000  0.16666667  0.83333333  1
  W  W467  1  0.25000000  0.16666667  0.91666667  1
  V  V468  1  0.25000000  0.25000000  0.00000000  1
  V  V469  1  0.25000000  0.25000000  0.08333333  1
  Ti  Ti470  1  0.25000000  0.25000000  0.16666667  1
  V  V471  1  0.25000000  0.25000000  0.25000000  1
  Zr  Zr472  1  0.25000000  0.25000000  0.33333333  1
  V  V473  1  0.25000000  0.25000000  0.41666667  1
  V  V474  1  0.25000000  0.25000000  0.50000000  1
  V  V475  1  0.25000000  0.25000000  0.58333333  1
  V  V476  1  0.25000000  0.25000000  0.66666667  1
  W  W477  1  0.25000000  0.25000000  0.75000000  1
  Zr  Zr478  1  0.25000000  0.25000000  0.83333333  1
  V  V479  1  0.25000000  0.25000000  0.91666667  1
  V  V480  1  0.25000000  0.33333333  0.00000000  1
  V  V481  1  0.25000000  0.33333333  0.08333333  1
  V  V482  1  0.25000000  0.33333333  0.16666667  1
  Cr  Cr483  1  0.25000000  0.33333333  0.25000000  1
  V  V484  1  0.25000000  0.33333333  0.33333333  1
  V  V485  1  0.25000000  0.33333333  0.41666667  1
  V  V486  1  0.25000000  0.33333333  0.50000000  1
  Ti  Ti487  1  0.25000000  0.33333333  0.58333333  1
  Cr  Cr488  1  0.25000000  0.33333333  0.66666667  1
  Zr  Zr489  1  0.25000000  0.33333333  0.75000000  1
  V  V490  1  0.25000000  0.33333333  0.83333333  1
  V  V491  1  0.25000000  0.33333333  0.91666667  1
  V  V492  1  0.25000000  0.41666667  0.00000000  1
  Zr  Zr493  1  0.25000000  0.41666667  0.08333333  1
  Cr  Cr494  1  0.25000000  0.41666667  0.16666667  1
  V  V495  1  0.25000000  0.41666667  0.25000000  1
  V  V496  1  0.25000000  0.41666667  0.33333333  1
  W  W497  1  0.25000000  0.41666667  0.41666667  1
  V  V498  1  0.25000000  0.41666667  0.50000000  1
  V  V499  1  0.25000000  0.41666667  0.58333333  1
  V  V500  1  0.25000000  0.41666667  0.66666667  1
  V  V501  1  0.25000000  0.41666667  0.75000000  1
  W  W502  1  0.25000000  0.41666667  0.83333333  1
  W  W503  1  0.25000000  0.41666667  0.91666667  1
  V  V504  1  0.25000000  0.50000000  0.00000000  1
  V  V505  1  0.25000000  0.50000000  0.08333333  1
  V  V506  1  0.25000000  0.50000000  0.16666667  1
  V  V507  1  0.25000000  0.50000000  0.25000000  1
  Zr  Zr508  1  0.25000000  0.50000000  0.33333333  1
  V  V509  1  0.25000000  0.50000000  0.41666667  1
  W  W510  1  0.25000000  0.50000000  0.50000000  1
  V  V511  1  0.25000000  0.50000000  0.58333333  1
  Zr  Zr512  1  0.25000000  0.50000000  0.66666667  1
  Zr  Zr513  1  0.25000000  0.50000000  0.75000000  1
  V  V514  1  0.25000000  0.50000000  0.83333333  1
  Zr  Zr515  1  0.25000000  0.50000000  0.91666667  1
  Cr  Cr516  1  0.25000000  0.58333333  1.00000000  1
  V  V517  1  0.25000000  0.58333333  0.08333333  1
  Zr  Zr518  1  0.25000000  0.58333333  0.16666667  1
  Cr  Cr519  1  0.25000000  0.58333333  0.25000000  1
  V  V520  1  0.25000000  0.58333333  0.33333333  1
  V  V521  1  0.25000000  0.58333333  0.41666667  1
  V  V522  1  0.25000000  0.58333333  0.50000000  1
  Ti  Ti523  1  0.25000000  0.58333333  0.58333333  1
  V  V524  1  0.25000000  0.58333333  0.66666667  1
  W  W525  1  0.25000000  0.58333333  0.75000000  1
  V  V526  1  0.25000000  0.58333333  0.83333333  1
  V  V527  1  0.25000000  0.58333333  0.91666667  1
  Cr  Cr528  1  0.25000000  0.66666667  1.00000000  1
  Ti  Ti529  1  0.25000000  0.66666667  0.08333333  1
  V  V530  1  0.25000000  0.66666667  0.16666667  1
  V  V531  1  0.25000000  0.66666667  0.25000000  1
  V  V532  1  0.25000000  0.66666667  0.33333333  1
  V  V533  1  0.25000000  0.66666667  0.41666667  1
  V  V534  1  0.25000000  0.66666667  0.50000000  1
  W  W535  1  0.25000000  0.66666667  0.58333333  1
  V  V536  1  0.25000000  0.66666667  0.66666667  1
  V  V537  1  0.25000000  0.66666667  0.75000000  1
  Cr  Cr538  1  0.25000000  0.66666667  0.83333333  1
  V  V539  1  0.25000000  0.66666667  0.91666667  1
  V  V540  1  0.25000000  0.75000000  1.00000000  1
  Zr  Zr541  1  0.25000000  0.75000000  0.08333333  1
  V  V542  1  0.25000000  0.75000000  0.16666667  1
  V  V543  1  0.25000000  0.75000000  0.25000000  1
  V  V544  1  0.25000000  0.75000000  0.33333333  1
  V  V545  1  0.25000000  0.75000000  0.41666667  1
  V  V546  1  0.25000000  0.75000000  0.50000000  1
  V  V547  1  0.25000000  0.75000000  0.58333333  1
  V  V548  1  0.25000000  0.75000000  0.66666667  1
  V  V549  1  0.25000000  0.75000000  0.75000000  1
  Zr  Zr550  1  0.25000000  0.75000000  0.83333333  1
  Zr  Zr551  1  0.25000000  0.75000000  0.91666667  1
  W  W552  1  0.25000000  0.83333333  0.00000000  1
  W  W553  1  0.25000000  0.83333333  0.08333333  1
  Cr  Cr554  1  0.25000000  0.83333333  0.16666667  1
  Cr  Cr555  1  0.25000000  0.83333333  0.25000000  1
  V  V556  1  0.25000000  0.83333333  0.33333333  1
  V  V557  1  0.25000000  0.83333333  0.41666667  1
  V  V558  1  0.25000000  0.83333333  0.50000000  1
  V  V559  1  0.25000000  0.83333333  0.58333333  1
  V  V560  1  0.25000000  0.83333333  0.66666667  1
  V  V561  1  0.25000000  0.83333333  0.75000000  1
  Ti  Ti562  1  0.25000000  0.83333333  0.83333333  1
  Cr  Cr563  1  0.25000000  0.83333333  0.91666667  1
  V  V564  1  0.25000000  0.91666667  1.00000000  1
  Cr  Cr565  1  0.25000000  0.91666667  0.08333333  1
  V  V566  1  0.25000000  0.91666667  0.16666667  1
  Cr  Cr567  1  0.25000000  0.91666667  0.25000000  1
  V  V568  1  0.25000000  0.91666667  0.33333333  1
  W  W569  1  0.25000000  0.91666667  0.41666667  1
  Zr  Zr570  1  0.25000000  0.91666667  0.50000000  1
  Ti  Ti571  1  0.25000000  0.91666667  0.58333333  1
  Cr  Cr572  1  0.25000000  0.91666667  0.66666667  1
  V  V573  1  0.25000000  0.91666667  0.75000000  1
  Ti  Ti574  1  0.25000000  0.91666667  0.83333333  1
  V  V575  1  0.25000000  0.91666667  0.91666667  1
  V  V576  1  0.33333333  0.00000000  0.00000000  1
  V  V577  1  0.33333333  0.00000000  0.08333333  1
  V  V578  1  0.33333333  0.00000000  0.16666667  1
  V  V579  1  0.33333333  0.00000000  0.25000000  1
  V  V580  1  0.33333333  0.00000000  0.33333333  1
  V  V581  1  0.33333333  0.00000000  0.41666667  1
  V  V582  1  0.33333333  0.00000000  0.50000000  1
  V  V583  1  0.33333333  0.00000000  0.58333333  1
  V  V584  1  0.33333333  0.00000000  0.66666667  1
  W  W585  1  0.33333333  0.00000000  0.75000000  1
  W  W586  1  0.33333333  0.00000000  0.83333333  1
  V  V587  1  0.33333333  0.00000000  0.91666667  1
  V  V588  1  0.33333333  0.08333333  0.00000000  1
  V  V589  1  0.33333333  0.08333333  0.08333333  1
  V  V590  1  0.33333333  0.08333333  0.16666667  1
  V  V591  1  0.33333333  0.08333333  0.25000000  1
  V  V592  1  0.33333333  0.08333333  0.33333333  1
  W  W593  1  0.33333333  0.08333333  0.41666667  1
  V  V594  1  0.33333333  0.08333333  0.50000000  1
  V  V595  1  0.33333333  0.08333333  0.58333333  1
  V  V596  1  0.33333333  0.08333333  0.66666667  1
  Cr  Cr597  1  0.33333333  0.08333333  0.75000000  1
  V  V598  1  0.33333333  0.08333333  0.83333333  1
  W  W599  1  0.33333333  0.08333333  0.91666667  1
  Zr  Zr600  1  0.33333333  0.16666667  0.00000000  1
  Cr  Cr601  1  0.33333333  0.16666667  0.08333333  1
  V  V602  1  0.33333333  0.16666667  0.16666667  1
  Cr  Cr603  1  0.33333333  0.16666667  0.25000000  1
  V  V604  1  0.33333333  0.16666667  0.33333333  1
  V  V605  1  0.33333333  0.16666667  0.41666667  1
  Cr  Cr606  1  0.33333333  0.16666667  0.50000000  1
  V  V607  1  0.33333333  0.16666667  0.58333333  1
  Cr  Cr608  1  0.33333333  0.16666667  0.66666667  1
  Ti  Ti609  1  0.33333333  0.16666667  0.75000000  1
  V  V610  1  0.33333333  0.16666667  0.83333333  1
  V  V611  1  0.33333333  0.16666667  0.91666667  1
  V  V612  1  0.33333333  0.25000000  0.00000000  1
  V  V613  1  0.33333333  0.25000000  0.08333333  1
  V  V614  1  0.33333333  0.25000000  0.16666667  1
  Cr  Cr615  1  0.33333333  0.25000000  0.25000000  1
  V  V616  1  0.33333333  0.25000000  0.33333333  1
  W  W617  1  0.33333333  0.25000000  0.41666667  1
  V  V618  1  0.33333333  0.25000000  0.50000000  1
  V  V619  1  0.33333333  0.25000000  0.58333333  1
  V  V620  1  0.33333333  0.25000000  0.66666667  1
  V  V621  1  0.33333333  0.25000000  0.75000000  1
  Zr  Zr622  1  0.33333333  0.25000000  0.83333333  1
  Cr  Cr623  1  0.33333333  0.25000000  0.91666667  1
  V  V624  1  0.33333333  0.33333333  0.00000000  1
  W  W625  1  0.33333333  0.33333333  0.08333333  1
  V  V626  1  0.33333333  0.33333333  0.16666667  1
  V  V627  1  0.33333333  0.33333333  0.25000000  1
  V  V628  1  0.33333333  0.33333333  0.33333333  1
  V  V629  1  0.33333333  0.33333333  0.41666667  1
  Cr  Cr630  1  0.33333333  0.33333333  0.50000000  1
  V  V631  1  0.33333333  0.33333333  0.58333333  1
  V  V632  1  0.33333333  0.33333333  0.66666667  1
  V  V633  1  0.33333333  0.33333333  0.75000000  1
  V  V634  1  0.33333333  0.33333333  0.83333333  1
  W  W635  1  0.33333333  0.33333333  0.91666667  1
  V  V636  1  0.33333333  0.41666667  0.00000000  1
  Cr  Cr637  1  0.33333333  0.41666667  0.08333333  1
  V  V638  1  0.33333333  0.41666667  0.16666667  1
  W  W639  1  0.33333333  0.41666667  0.25000000  1
  V  V640  1  0.33333333  0.41666667  0.33333333  1
  Ti  Ti641  1  0.33333333  0.41666667  0.41666667  1
  V  V642  1  0.33333333  0.41666667  0.50000000  1
  W  W643  1  0.33333333  0.41666667  0.58333333  1
  W  W644  1  0.33333333  0.41666667  0.66666667  1
  V  V645  1  0.33333333  0.41666667  0.75000000  1
  Zr  Zr646  1  0.33333333  0.41666667  0.83333333  1
  V  V647  1  0.33333333  0.41666667  0.91666667  1
  Cr  Cr648  1  0.33333333  0.50000000  0.00000000  1
  V  V649  1  0.33333333  0.50000000  0.08333333  1
  V  V650  1  0.33333333  0.50000000  0.16666667  1
  V  V651  1  0.33333333  0.50000000  0.25000000  1
  Cr  Cr652  1  0.33333333  0.50000000  0.33333333  1
  Zr  Zr653  1  0.33333333  0.50000000  0.41666667  1
  V  V654  1  0.33333333  0.50000000  0.50000000  1
  Zr  Zr655  1  0.33333333  0.50000000  0.58333333  1
  V  V656  1  0.33333333  0.50000000  0.66666667  1
  V  V657  1  0.33333333  0.50000000  0.75000000  1
  V  V658  1  0.33333333  0.50000000  0.83333333  1
  W  W659  1  0.33333333  0.50000000  0.91666667  1
  Zr  Zr660  1  0.33333333  0.58333333  0.00000000  1
  Zr  Zr661  1  0.33333333  0.58333333  0.08333333  1
  W  W662  1  0.33333333  0.58333333  0.16666667  1
  V  V663  1  0.33333333  0.58333333  0.25000000  1
  V  V664  1  0.33333333  0.58333333  0.33333333  1
  Zr  Zr665  1  0.33333333  0.58333333  0.41666667  1
  V  V666  1  0.33333333  0.58333333  0.50000000  1
  Zr  Zr667  1  0.33333333  0.58333333  0.58333333  1
  V  V668  1  0.33333333  0.58333333  0.66666667  1
  V  V669  1  0.33333333  0.58333333  0.75000000  1
  V  V670  1  0.33333333  0.58333333  0.83333333  1
  Zr  Zr671  1  0.33333333  0.58333333  0.91666667  1
  Cr  Cr672  1  0.33333333  0.66666667  1.00000000  1
  V  V673  1  0.33333333  0.66666667  0.08333333  1
  V  V674  1  0.33333333  0.66666667  0.16666667  1
  V  V675  1  0.33333333  0.66666667  0.25000000  1
  V  V676  1  0.33333333  0.66666667  0.33333333  1
  V  V677  1  0.33333333  0.66666667  0.41666667  1
  V  V678  1  0.33333333  0.66666667  0.50000000  1
  V  V679  1  0.33333333  0.66666667  0.58333333  1
  V  V680  1  0.33333333  0.66666667  0.66666667  1
  V  V681  1  0.33333333  0.66666667  0.75000000  1
  Zr  Zr682  1  0.33333333  0.66666667  0.83333333  1
  V  V683  1  0.33333333  0.66666667  0.91666667  1
  Zr  Zr684  1  0.33333333  0.75000000  1.00000000  1
  V  V685  1  0.33333333  0.75000000  0.08333333  1
  Ti  Ti686  1  0.33333333  0.75000000  0.16666667  1
  V  V687  1  0.33333333  0.75000000  0.25000000  1
  V  V688  1  0.33333333  0.75000000  0.33333333  1
  V  V689  1  0.33333333  0.75000000  0.41666667  1
  V  V690  1  0.33333333  0.75000000  0.50000000  1
  V  V691  1  0.33333333  0.75000000  0.58333333  1
  V  V692  1  0.33333333  0.75000000  0.66666667  1
  V  V693  1  0.33333333  0.75000000  0.75000000  1
  W  W694  1  0.33333333  0.75000000  0.83333333  1
  V  V695  1  0.33333333  0.75000000  0.91666667  1
  Cr  Cr696  1  0.33333333  0.83333333  0.00000000  1
  Ti  Ti697  1  0.33333333  0.83333333  0.08333333  1
  V  V698  1  0.33333333  0.83333333  0.16666667  1
  Cr  Cr699  1  0.33333333  0.83333333  0.25000000  1
  Zr  Zr700  1  0.33333333  0.83333333  0.33333333  1
  V  V701  1  0.33333333  0.83333333  0.41666667  1
  Zr  Zr702  1  0.33333333  0.83333333  0.50000000  1
  Cr  Cr703  1  0.33333333  0.83333333  0.58333333  1
  V  V704  1  0.33333333  0.83333333  0.66666667  1
  W  W705  1  0.33333333  0.83333333  0.75000000  1
  Zr  Zr706  1  0.33333333  0.83333333  0.83333333  1
  V  V707  1  0.33333333  0.83333333  0.91666667  1
  V  V708  1  0.33333333  0.91666667  0.00000000  1
  V  V709  1  0.33333333  0.91666667  0.08333333  1
  V  V710  1  0.33333333  0.91666667  0.16666667  1
  V  V711  1  0.33333333  0.91666667  0.25000000  1
  V  V712  1  0.33333333  0.91666667  0.33333333  1
  V  V713  1  0.33333333  0.91666667  0.41666667  1
  Cr  Cr714  1  0.33333333  0.91666667  0.50000000  1
  V  V715  1  0.33333333  0.91666667  0.58333333  1
  V  V716  1  0.33333333  0.91666667  0.66666667  1
  V  V717  1  0.33333333  0.91666667  0.75000000  1
  Cr  Cr718  1  0.33333333  0.91666667  0.83333333  1
  V  V719  1  0.33333333  0.91666667  0.91666667  1
  Cr  Cr720  1  0.41666667  0.00000000  0.00000000  1
  Ti  Ti721  1  0.41666667  0.00000000  0.08333333  1
  Zr  Zr722  1  0.41666667  0.00000000  0.16666667  1
  W  W723  1  0.41666667  0.00000000  0.25000000  1
  V  V724  1  0.41666667  0.00000000  0.33333333  1
  V  V725  1  0.41666667  0.00000000  0.41666667  1
  V  V726  1  0.41666667  0.00000000  0.50000000  1
  V  V727  1  0.41666667  0.00000000  0.58333333  1
  Zr  Zr728  1  0.41666667  0.00000000  0.66666667  1
  V  V729  1  0.41666667  0.00000000  0.75000000  1
  V  V730  1  0.41666667  0.00000000  0.83333333  1
  Cr  Cr731  1  0.41666667  0.00000000  0.91666667  1
  V  V732  1  0.41666667  0.08333333  0.00000000  1
  Zr  Zr733  1  0.41666667  0.08333333  0.08333333  1
  V  V734  1  0.41666667  0.08333333  0.16666667  1
  Zr  Zr735  1  0.41666667  0.08333333  0.25000000  1
  Zr  Zr736  1  0.41666667  0.08333333  0.33333333  1
  Zr  Zr737  1  0.41666667  0.08333333  0.41666667  1
  V  V738  1  0.41666667  0.08333333  0.50000000  1
  V  V739  1  0.41666667  0.08333333  0.58333333  1
  V  V740  1  0.41666667  0.08333333  0.66666667  1
  Cr  Cr741  1  0.41666667  0.08333333  0.75000000  1
  Ti  Ti742  1  0.41666667  0.08333333  0.83333333  1
  V  V743  1  0.41666667  0.08333333  0.91666667  1
  Zr  Zr744  1  0.41666667  0.16666667  0.00000000  1
  W  W745  1  0.41666667  0.16666667  0.08333333  1
  V  V746  1  0.41666667  0.16666667  0.16666667  1
  V  V747  1  0.41666667  0.16666667  0.25000000  1
  V  V748  1  0.41666667  0.16666667  0.33333333  1
  Ti  Ti749  1  0.41666667  0.16666667  0.41666667  1
  V  V750  1  0.41666667  0.16666667  0.50000000  1
  V  V751  1  0.41666667  0.16666667  0.58333333  1
  Ti  Ti752  1  0.41666667  0.16666667  0.66666667  1
  V  V753  1  0.41666667  0.16666667  0.75000000  1
  V  V754  1  0.41666667  0.16666667  0.83333333  1
  V  V755  1  0.41666667  0.16666667  0.91666667  1
  W  W756  1  0.41666667  0.25000000  0.00000000  1
  Zr  Zr757  1  0.41666667  0.25000000  0.08333333  1
  W  W758  1  0.41666667  0.25000000  0.16666667  1
  V  V759  1  0.41666667  0.25000000  0.25000000  1
  V  V760  1  0.41666667  0.25000000  0.33333333  1
  V  V761  1  0.41666667  0.25000000  0.41666667  1
  V  V762  1  0.41666667  0.25000000  0.50000000  1
  V  V763  1  0.41666667  0.25000000  0.58333333  1
  Zr  Zr764  1  0.41666667  0.25000000  0.66666667  1
  Zr  Zr765  1  0.41666667  0.25000000  0.75000000  1
  V  V766  1  0.41666667  0.25000000  0.83333333  1
  W  W767  1  0.41666667  0.25000000  0.91666667  1
  V  V768  1  0.41666667  0.33333333  0.00000000  1
  V  V769  1  0.41666667  0.33333333  0.08333333  1
  Cr  Cr770  1  0.41666667  0.33333333  0.16666667  1
  V  V771  1  0.41666667  0.33333333  0.25000000  1
  V  V772  1  0.41666667  0.33333333  0.33333333  1
  V  V773  1  0.41666667  0.33333333  0.41666667  1
  W  W774  1  0.41666667  0.33333333  0.50000000  1
  V  V775  1  0.41666667  0.33333333  0.58333333  1
  V  V776  1  0.41666667  0.33333333  0.66666667  1
  Zr  Zr777  1  0.41666667  0.33333333  0.75000000  1
  V  V778  1  0.41666667  0.33333333  0.83333333  1
  V  V779  1  0.41666667  0.33333333  0.91666667  1
  W  W780  1  0.41666667  0.41666667  1.00000000  1
  V  V781  1  0.41666667  0.41666667  0.08333333  1
  V  V782  1  0.41666667  0.41666667  0.16666667  1
  Zr  Zr783  1  0.41666667  0.41666667  0.25000000  1
  V  V784  1  0.41666667  0.41666667  0.33333333  1
  V  V785  1  0.41666667  0.41666667  0.41666667  1
  V  V786  1  0.41666667  0.41666667  0.50000000  1
  W  W787  1  0.41666667  0.41666667  0.58333333  1
  V  V788  1  0.41666667  0.41666667  0.66666667  1
  V  V789  1  0.41666667  0.41666667  0.75000000  1
  V  V790  1  0.41666667  0.41666667  0.83333333  1
  V  V791  1  0.41666667  0.41666667  0.91666667  1
  W  W792  1  0.41666667  0.50000000  1.00000000  1
  V  V793  1  0.41666667  0.50000000  0.08333333  1
  V  V794  1  0.41666667  0.50000000  0.16666667  1
  Cr  Cr795  1  0.41666667  0.50000000  0.25000000  1
  V  V796  1  0.41666667  0.50000000  0.33333333  1
  V  V797  1  0.41666667  0.50000000  0.41666667  1
  Zr  Zr798  1  0.41666667  0.50000000  0.50000000  1
  V  V799  1  0.41666667  0.50000000  0.58333333  1
  V  V800  1  0.41666667  0.50000000  0.66666667  1
  V  V801  1  0.41666667  0.50000000  0.75000000  1
  V  V802  1  0.41666667  0.50000000  0.83333333  1
  Ti  Ti803  1  0.41666667  0.50000000  0.91666667  1
  Ti  Ti804  1  0.41666667  0.58333333  0.00000000  1
  V  V805  1  0.41666667  0.58333333  0.08333333  1
  V  V806  1  0.41666667  0.58333333  0.16666667  1
  W  W807  1  0.41666667  0.58333333  0.25000000  1
  Cr  Cr808  1  0.41666667  0.58333333  0.33333333  1
  V  V809  1  0.41666667  0.58333333  0.41666667  1
  V  V810  1  0.41666667  0.58333333  0.50000000  1
  Zr  Zr811  1  0.41666667  0.58333333  0.58333333  1
  V  V812  1  0.41666667  0.58333333  0.66666667  1
  W  W813  1  0.41666667  0.58333333  0.75000000  1
  V  V814  1  0.41666667  0.58333333  0.83333333  1
  V  V815  1  0.41666667  0.58333333  0.91666667  1
  V  V816  1  0.41666667  0.66666667  1.00000000  1
  Cr  Cr817  1  0.41666667  0.66666667  0.08333333  1
  Ti  Ti818  1  0.41666667  0.66666667  0.16666667  1
  V  V819  1  0.41666667  0.66666667  0.25000000  1
  V  V820  1  0.41666667  0.66666667  0.33333333  1
  Ti  Ti821  1  0.41666667  0.66666667  0.41666667  1
  Cr  Cr822  1  0.41666667  0.66666667  0.50000000  1
  Ti  Ti823  1  0.41666667  0.66666667  0.58333333  1
  V  V824  1  0.41666667  0.66666667  0.66666667  1
  V  V825  1  0.41666667  0.66666667  0.75000000  1
  V  V826  1  0.41666667  0.66666667  0.83333333  1
  W  W827  1  0.41666667  0.66666667  0.91666667  1
  V  V828  1  0.41666667  0.75000000  1.00000000  1
  W  W829  1  0.41666667  0.75000000  0.08333333  1
  Ti  Ti830  1  0.41666667  0.75000000  0.16666667  1
  Zr  Zr831  1  0.41666667  0.75000000  0.25000000  1
  Cr  Cr832  1  0.41666667  0.75000000  0.33333333  1
  V  V833  1  0.41666667  0.75000000  0.41666667  1
  V  V834  1  0.41666667  0.75000000  0.50000000  1
  V  V835  1  0.41666667  0.75000000  0.58333333  1
  V  V836  1  0.41666667  0.75000000  0.66666667  1
  V  V837  1  0.41666667  0.75000000  0.75000000  1
  V  V838  1  0.41666667  0.75000000  0.83333333  1
  V  V839  1  0.41666667  0.75000000  0.91666667  1
  V  V840  1  0.41666667  0.83333333  0.00000000  1
  Cr  Cr841  1  0.41666667  0.83333333  0.08333333  1
  Zr  Zr842  1  0.41666667  0.83333333  0.16666667  1
  W  W843  1  0.41666667  0.83333333  0.25000000  1
  Cr  Cr844  1  0.41666667  0.83333333  0.33333333  1
  Zr  Zr845  1  0.41666667  0.83333333  0.41666667  1
  V  V846  1  0.41666667  0.83333333  0.50000000  1
  V  V847  1  0.41666667  0.83333333  0.58333333  1
  V  V848  1  0.41666667  0.83333333  0.66666667  1
  Zr  Zr849  1  0.41666667  0.83333333  0.75000000  1
  V  V850  1  0.41666667  0.83333333  0.83333333  1
  Zr  Zr851  1  0.41666667  0.83333333  0.91666667  1
  V  V852  1  0.41666667  0.91666667  0.00000000  1
  Ti  Ti853  1  0.41666667  0.91666667  0.08333333  1
  V  V854  1  0.41666667  0.91666667  0.16666667  1
  V  V855  1  0.41666667  0.91666667  0.25000000  1
  V  V856  1  0.41666667  0.91666667  0.33333333  1
  Cr  Cr857  1  0.41666667  0.91666667  0.41666667  1
  V  V858  1  0.41666667  0.91666667  0.50000000  1
  W  W859  1  0.41666667  0.91666667  0.58333333  1
  V  V860  1  0.41666667  0.91666667  0.66666667  1
  V  V861  1  0.41666667  0.91666667  0.75000000  1
  W  W862  1  0.41666667  0.91666667  0.83333333  1
  V  V863  1  0.41666667  0.91666667  0.91666667  1
  V  V864  1  0.50000000  0.00000000  0.00000000  1
  V  V865  1  0.50000000  0.00000000  0.08333333  1
  V  V866  1  0.50000000  0.00000000  0.16666667  1
  W  W867  1  0.50000000  0.00000000  0.25000000  1
  V  V868  1  0.50000000  0.00000000  0.33333333  1
  Cr  Cr869  1  0.50000000  0.00000000  0.41666667  1
  V  V870  1  0.50000000  0.00000000  0.50000000  1
  V  V871  1  0.50000000  0.00000000  0.58333333  1
  Zr  Zr872  1  0.50000000  0.00000000  0.66666667  1
  V  V873  1  0.50000000  0.00000000  0.75000000  1
  W  W874  1  0.50000000  0.00000000  0.83333333  1
  V  V875  1  0.50000000  0.00000000  0.91666667  1
  V  V876  1  0.50000000  0.08333333  0.00000000  1
  Zr  Zr877  1  0.50000000  0.08333333  0.08333333  1
  V  V878  1  0.50000000  0.08333333  0.16666667  1
  V  V879  1  0.50000000  0.08333333  0.25000000  1
  Zr  Zr880  1  0.50000000  0.08333333  0.33333333  1
  Cr  Cr881  1  0.50000000  0.08333333  0.41666667  1
  Ti  Ti882  1  0.50000000  0.08333333  0.50000000  1
  V  V883  1  0.50000000  0.08333333  0.58333333  1
  V  V884  1  0.50000000  0.08333333  0.66666667  1
  V  V885  1  0.50000000  0.08333333  0.75000000  1
  V  V886  1  0.50000000  0.08333333  0.83333333  1
  Ti  Ti887  1  0.50000000  0.08333333  0.91666667  1
  V  V888  1  0.50000000  0.16666667  0.00000000  1
  Zr  Zr889  1  0.50000000  0.16666667  0.08333333  1
  V  V890  1  0.50000000  0.16666667  0.16666667  1
  Ti  Ti891  1  0.50000000  0.16666667  0.25000000  1
  V  V892  1  0.50000000  0.16666667  0.33333333  1
  V  V893  1  0.50000000  0.16666667  0.41666667  1
  Cr  Cr894  1  0.50000000  0.16666667  0.50000000  1
  W  W895  1  0.50000000  0.16666667  0.58333333  1
  Zr  Zr896  1  0.50000000  0.16666667  0.66666667  1
  V  V897  1  0.50000000  0.16666667  0.75000000  1
  V  V898  1  0.50000000  0.16666667  0.83333333  1
  V  V899  1  0.50000000  0.16666667  0.91666667  1
  Zr  Zr900  1  0.50000000  0.25000000  0.00000000  1
  V  V901  1  0.50000000  0.25000000  0.08333333  1
  W  W902  1  0.50000000  0.25000000  0.16666667  1
  Zr  Zr903  1  0.50000000  0.25000000  0.25000000  1
  V  V904  1  0.50000000  0.25000000  0.33333333  1
  Cr  Cr905  1  0.50000000  0.25000000  0.41666667  1
  Ti  Ti906  1  0.50000000  0.25000000  0.50000000  1
  V  V907  1  0.50000000  0.25000000  0.58333333  1
  Cr  Cr908  1  0.50000000  0.25000000  0.66666667  1
  V  V909  1  0.50000000  0.25000000  0.75000000  1
  V  V910  1  0.50000000  0.25000000  0.83333333  1
  V  V911  1  0.50000000  0.25000000  0.91666667  1
  V  V912  1  0.50000000  0.33333333  1.00000000  1
  V  V913  1  0.50000000  0.33333333  0.08333333  1
  Ti  Ti914  1  0.50000000  0.33333333  0.16666667  1
  Ti  Ti915  1  0.50000000  0.33333333  0.25000000  1
  V  V916  1  0.50000000  0.33333333  0.33333333  1
  Ti  Ti917  1  0.50000000  0.33333333  0.41666667  1
  V  V918  1  0.50000000  0.33333333  0.50000000  1
  V  V919  1  0.50000000  0.33333333  0.58333333  1
  Ti  Ti920  1  0.50000000  0.33333333  0.66666667  1
  V  V921  1  0.50000000  0.33333333  0.75000000  1
  V  V922  1  0.50000000  0.33333333  0.83333333  1
  W  W923  1  0.50000000  0.33333333  0.91666667  1
  W  W924  1  0.50000000  0.41666667  1.00000000  1
  V  V925  1  0.50000000  0.41666667  0.08333333  1
  V  V926  1  0.50000000  0.41666667  0.16666667  1
  Cr  Cr927  1  0.50000000  0.41666667  0.25000000  1
  V  V928  1  0.50000000  0.41666667  0.33333333  1
  W  W929  1  0.50000000  0.41666667  0.41666667  1
  V  V930  1  0.50000000  0.41666667  0.50000000  1
  Zr  Zr931  1  0.50000000  0.41666667  0.58333333  1
  V  V932  1  0.50000000  0.41666667  0.66666667  1
  V  V933  1  0.50000000  0.41666667  0.75000000  1
  W  W934  1  0.50000000  0.41666667  0.83333333  1
  W  W935  1  0.50000000  0.41666667  0.91666667  1
  V  V936  1  0.50000000  0.50000000  1.00000000  1
  Cr  Cr937  1  0.50000000  0.50000000  0.08333333  1
  Ti  Ti938  1  0.50000000  0.50000000  0.16666667  1
  V  V939  1  0.50000000  0.50000000  0.25000000  1
  V  V940  1  0.50000000  0.50000000  0.33333333  1
  Zr  Zr941  1  0.50000000  0.50000000  0.41666667  1
  V  V942  1  0.50000000  0.50000000  0.50000000  1
  V  V943  1  0.50000000  0.50000000  0.58333333  1
  V  V944  1  0.50000000  0.50000000  0.66666667  1
  W  W945  1  0.50000000  0.50000000  0.75000000  1
  V  V946  1  0.50000000  0.50000000  0.83333333  1
  V  V947  1  0.50000000  0.50000000  0.91666667  1
  Zr  Zr948  1  0.50000000  0.58333333  0.00000000  1
  W  W949  1  0.50000000  0.58333333  0.08333333  1
  V  V950  1  0.50000000  0.58333333  0.16666667  1
  V  V951  1  0.50000000  0.58333333  0.25000000  1
  V  V952  1  0.50000000  0.58333333  0.33333333  1
  V  V953  1  0.50000000  0.58333333  0.41666667  1
  Cr  Cr954  1  0.50000000  0.58333333  0.50000000  1
  Zr  Zr955  1  0.50000000  0.58333333  0.58333333  1
  Zr  Zr956  1  0.50000000  0.58333333  0.66666667  1
  Zr  Zr957  1  0.50000000  0.58333333  0.75000000  1
  V  V958  1  0.50000000  0.58333333  0.83333333  1
  Ti  Ti959  1  0.50000000  0.58333333  0.91666667  1
  V  V960  1  0.50000000  0.66666667  1.00000000  1
  V  V961  1  0.50000000  0.66666667  0.08333333  1
  Cr  Cr962  1  0.50000000  0.66666667  0.16666667  1
  W  W963  1  0.50000000  0.66666667  0.25000000  1
  V  V964  1  0.50000000  0.66666667  0.33333333  1
  V  V965  1  0.50000000  0.66666667  0.41666667  1
  V  V966  1  0.50000000  0.66666667  0.50000000  1
  Cr  Cr967  1  0.50000000  0.66666667  0.58333333  1
  V  V968  1  0.50000000  0.66666667  0.66666667  1
  V  V969  1  0.50000000  0.66666667  0.75000000  1
  V  V970  1  0.50000000  0.66666667  0.83333333  1
  W  W971  1  0.50000000  0.66666667  0.91666667  1
  V  V972  1  0.50000000  0.75000000  1.00000000  1
  V  V973  1  0.50000000  0.75000000  0.08333333  1
  V  V974  1  0.50000000  0.75000000  0.16666667  1
  V  V975  1  0.50000000  0.75000000  0.25000000  1
  V  V976  1  0.50000000  0.75000000  0.33333333  1
  V  V977  1  0.50000000  0.75000000  0.41666667  1
  Ti  Ti978  1  0.50000000  0.75000000  0.50000000  1
  W  W979  1  0.50000000  0.75000000  0.58333333  1
  V  V980  1  0.50000000  0.75000000  0.66666667  1
  V  V981  1  0.50000000  0.75000000  0.75000000  1
  W  W982  1  0.50000000  0.75000000  0.83333333  1
  Zr  Zr983  1  0.50000000  0.75000000  0.91666667  1
  Cr  Cr984  1  0.50000000  0.83333333  0.00000000  1
  V  V985  1  0.50000000  0.83333333  0.08333333  1
  Ti  Ti986  1  0.50000000  0.83333333  0.16666667  1
  V  V987  1  0.50000000  0.83333333  0.25000000  1
  Cr  Cr988  1  0.50000000  0.83333333  0.33333333  1
  Ti  Ti989  1  0.50000000  0.83333333  0.41666667  1
  V  V990  1  0.50000000  0.83333333  0.50000000  1
  V  V991  1  0.50000000  0.83333333  0.58333333  1
  Zr  Zr992  1  0.50000000  0.83333333  0.66666667  1
  Ti  Ti993  1  0.50000000  0.83333333  0.75000000  1
  Zr  Zr994  1  0.50000000  0.83333333  0.83333333  1
  V  V995  1  0.50000000  0.83333333  0.91666667  1
  V  V996  1  0.50000000  0.91666667  0.00000000  1
  Cr  Cr997  1  0.50000000  0.91666667  0.08333333  1
  W  W998  1  0.50000000  0.91666667  0.16666667  1
  V  V999  1  0.50000000  0.91666667  0.25000000  1
  W  W1000  1  0.50000000  0.91666667  0.33333333  1
  V  V1001  1  0.50000000  0.91666667  0.41666667  1
  V  V1002  1  0.50000000  0.91666667  0.50000000  1
  Cr  Cr1003  1  0.50000000  0.91666667  0.58333333  1
  W  W1004  1  0.50000000  0.91666667  0.66666667  1
  V  V1005  1  0.50000000  0.91666667  0.75000000  1
  V  V1006  1  0.50000000  0.91666667  0.83333333  1
  Zr  Zr1007  1  0.50000000  0.91666667  0.91666667  1
  V  V1008  1  0.58333333  0.00000000  0.00000000  1
  V  V1009  1  0.58333333  0.00000000  0.08333333  1
  V  V1010  1  0.58333333  0.00000000  0.16666667  1
  V  V1011  1  0.58333333  0.00000000  0.25000000  1
  V  V1012  1  0.58333333  0.00000000  0.33333333  1
  Cr  Cr1013  1  0.58333333  0.00000000  0.41666667  1
  V  V1014  1  0.58333333  0.00000000  0.50000000  1
  Zr  Zr1015  1  0.58333333  0.00000000  0.58333333  1
  V  V1016  1  0.58333333  0.00000000  0.66666667  1
  V  V1017  1  0.58333333  0.00000000  0.75000000  1
  Zr  Zr1018  1  0.58333333  0.00000000  0.83333333  1
  V  V1019  1  0.58333333  0.00000000  0.91666667  1
  V  V1020  1  0.58333333  0.08333333  0.00000000  1
  V  V1021  1  0.58333333  0.08333333  0.08333333  1
  W  W1022  1  0.58333333  0.08333333  0.16666667  1
  V  V1023  1  0.58333333  0.08333333  0.25000000  1
  V  V1024  1  0.58333333  0.08333333  0.33333333  1
  V  V1025  1  0.58333333  0.08333333  0.41666667  1
  V  V1026  1  0.58333333  0.08333333  0.50000000  1
  Zr  Zr1027  1  0.58333333  0.08333333  0.58333333  1
  V  V1028  1  0.58333333  0.08333333  0.66666667  1
  W  W1029  1  0.58333333  0.08333333  0.75000000  1
  Ti  Ti1030  1  0.58333333  0.08333333  0.83333333  1
  V  V1031  1  0.58333333  0.08333333  0.91666667  1
  V  V1032  1  0.58333333  0.16666667  0.00000000  1
  V  V1033  1  0.58333333  0.16666667  0.08333333  1
  V  V1034  1  0.58333333  0.16666667  0.16666667  1
  Cr  Cr1035  1  0.58333333  0.16666667  0.25000000  1
  V  V1036  1  0.58333333  0.16666667  0.33333333  1
  Ti  Ti1037  1  0.58333333  0.16666667  0.41666667  1
  V  V1038  1  0.58333333  0.16666667  0.50000000  1
  V  V1039  1  0.58333333  0.16666667  0.58333333  1
  V  V1040  1  0.58333333  0.16666667  0.66666667  1
  V  V1041  1  0.58333333  0.16666667  0.75000000  1
  V  V1042  1  0.58333333  0.16666667  0.83333333  1
  V  V1043  1  0.58333333  0.16666667  0.91666667  1
  V  V1044  1  0.58333333  0.25000000  0.00000000  1
  V  V1045  1  0.58333333  0.25000000  0.08333333  1
  V  V1046  1  0.58333333  0.25000000  0.16666667  1
  V  V1047  1  0.58333333  0.25000000  0.25000000  1
  Ti  Ti1048  1  0.58333333  0.25000000  0.33333333  1
  Cr  Cr1049  1  0.58333333  0.25000000  0.41666667  1
  V  V1050  1  0.58333333  0.25000000  0.50000000  1
  V  V1051  1  0.58333333  0.25000000  0.58333333  1
  V  V1052  1  0.58333333  0.25000000  0.66666667  1
  V  V1053  1  0.58333333  0.25000000  0.75000000  1
  V  V1054  1  0.58333333  0.25000000  0.83333333  1
  V  V1055  1  0.58333333  0.25000000  0.91666667  1
  V  V1056  1  0.58333333  0.33333333  1.00000000  1
  V  V1057  1  0.58333333  0.33333333  0.08333333  1
  V  V1058  1  0.58333333  0.33333333  0.16666667  1
  Cr  Cr1059  1  0.58333333  0.33333333  0.25000000  1
  V  V1060  1  0.58333333  0.33333333  0.33333333  1
  W  W1061  1  0.58333333  0.33333333  0.41666667  1
  V  V1062  1  0.58333333  0.33333333  0.50000000  1
  V  V1063  1  0.58333333  0.33333333  0.58333333  1
  W  W1064  1  0.58333333  0.33333333  0.66666667  1
  V  V1065  1  0.58333333  0.33333333  0.75000000  1
  Zr  Zr1066  1  0.58333333  0.33333333  0.83333333  1
  V  V1067  1  0.58333333  0.33333333  0.91666667  1
  Cr  Cr1068  1  0.58333333  0.41666667  0.00000000  1
  Ti  Ti1069  1  0.58333333  0.41666667  0.08333333  1
  V  V1070  1  0.58333333  0.41666667  0.16666667  1
  V  V1071  1  0.58333333  0.41666667  0.25000000  1
  W  W1072  1  0.58333333  0.41666667  0.33333333  1
  V  V1073  1  0.58333333  0.41666667  0.41666667  1
  V  V1074  1  0.58333333  0.41666667  0.50000000  1
  V  V1075  1  0.58333333  0.41666667  0.58333333  1
  Zr  Zr1076  1  0.58333333  0.41666667  0.66666667  1
  W  W1077  1  0.58333333  0.41666667  0.75000000  1
  V  V1078  1  0.58333333  0.41666667  0.83333333  1
  Cr  Cr1079  1  0.58333333  0.41666667  0.91666667  1
  V  V1080  1  0.58333333  0.50000000  0.00000000  1
  W  W1081  1  0.58333333  0.50000000  0.08333333  1
  V  V1082  1  0.58333333  0.50000000  0.16666667  1
  Cr  Cr1083  1  0.58333333  0.50000000  0.25000000  1
  V  V1084  1  0.58333333  0.50000000  0.33333333  1
  V  V1085  1  0.58333333  0.50000000  0.41666667  1
  V  V1086  1  0.58333333  0.50000000  0.50000000  1
  V  V1087  1  0.58333333  0.50000000  0.58333333  1
  V  V1088  1  0.58333333  0.50000000  0.66666667  1
  W  W1089  1  0.58333333  0.50000000  0.75000000  1
  V  V1090  1  0.58333333  0.50000000  0.83333333  1
  Zr  Zr1091  1  0.58333333  0.50000000  0.91666667  1
  V  V1092  1  0.58333333  0.58333333  0.00000000  1
  Zr  Zr1093  1  0.58333333  0.58333333  0.08333333  1
  Zr  Zr1094  1  0.58333333  0.58333333  0.16666667  1
  V  V1095  1  0.58333333  0.58333333  0.25000000  1
  Cr  Cr1096  1  0.58333333  0.58333333  0.33333333  1
  V  V1097  1  0.58333333  0.58333333  0.41666667  1
  V  V1098  1  0.58333333  0.58333333  0.50000000  1
  V  V1099  1  0.58333333  0.58333333  0.58333333  1
  V  V1100  1  0.58333333  0.58333333  0.66666667  1
  V  V1101  1  0.58333333  0.58333333  0.75000000  1
  V  V1102  1  0.58333333  0.58333333  0.83333333  1
  V  V1103  1  0.58333333  0.58333333  0.91666667  1
  V  V1104  1  0.58333333  0.66666667  1.00000000  1
  V  V1105  1  0.58333333  0.66666667  0.08333333  1
  V  V1106  1  0.58333333  0.66666667  0.16666667  1
  V  V1107  1  0.58333333  0.66666667  0.25000000  1
  W  W1108  1  0.58333333  0.66666667  0.33333333  1
  V  V1109  1  0.58333333  0.66666667  0.41666667  1
  V  V1110  1  0.58333333  0.66666667  0.50000000  1
  W  W1111  1  0.58333333  0.66666667  0.58333333  1
  Ti  Ti1112  1  0.58333333  0.66666667  0.66666667  1
  V  V1113  1  0.58333333  0.66666667  0.75000000  1
  W  W1114  1  0.58333333  0.66666667  0.83333333  1
  Cr  Cr1115  1  0.58333333  0.66666667  0.91666667  1
  V  V1116  1  0.58333333  0.75000000  1.00000000  1
  Zr  Zr1117  1  0.58333333  0.75000000  0.08333333  1
  V  V1118  1  0.58333333  0.75000000  0.16666667  1
  W  W1119  1  0.58333333  0.75000000  0.25000000  1
  Zr  Zr1120  1  0.58333333  0.75000000  0.33333333  1
  V  V1121  1  0.58333333  0.75000000  0.41666667  1
  V  V1122  1  0.58333333  0.75000000  0.50000000  1
  V  V1123  1  0.58333333  0.75000000  0.58333333  1
  V  V1124  1  0.58333333  0.75000000  0.66666667  1
  V  V1125  1  0.58333333  0.75000000  0.75000000  1
  Zr  Zr1126  1  0.58333333  0.75000000  0.83333333  1
  V  V1127  1  0.58333333  0.75000000  0.91666667  1
  V  V1128  1  0.58333333  0.83333333  0.00000000  1
  V  V1129  1  0.58333333  0.83333333  0.08333333  1
  W  W1130  1  0.58333333  0.83333333  0.16666667  1
  V  V1131  1  0.58333333  0.83333333  0.25000000  1
  Ti  Ti1132  1  0.58333333  0.83333333  0.33333333  1
  V  V1133  1  0.58333333  0.83333333  0.41666667  1
  V  V1134  1  0.58333333  0.83333333  0.50000000  1
  V  V1135  1  0.58333333  0.83333333  0.58333333  1
  V  V1136  1  0.58333333  0.83333333  0.66666667  1
  V  V1137  1  0.58333333  0.83333333  0.75000000  1
  V  V1138  1  0.58333333  0.83333333  0.83333333  1
  W  W1139  1  0.58333333  0.83333333  0.91666667  1
  V  V1140  1  0.58333333  0.91666667  1.00000000  1
  V  V1141  1  0.58333333  0.91666667  0.08333333  1
  V  V1142  1  0.58333333  0.91666667  0.16666667  1
  V  V1143  1  0.58333333  0.91666667  0.25000000  1
  V  V1144  1  0.58333333  0.91666667  0.33333333  1
  Cr  Cr1145  1  0.58333333  0.91666667  0.41666667  1
  Zr  Zr1146  1  0.58333333  0.91666667  0.50000000  1
  V  V1147  1  0.58333333  0.91666667  0.58333333  1
  W  W1148  1  0.58333333  0.91666667  0.66666667  1
  Cr  Cr1149  1  0.58333333  0.91666667  0.75000000  1
  V  V1150  1  0.58333333  0.91666667  0.83333333  1
  V  V1151  1  0.58333333  0.91666667  0.91666667  1
  Cr  Cr1152  1  0.66666667  0.00000000  0.00000000  1
  V  V1153  1  0.66666667  0.00000000  0.08333333  1
  V  V1154  1  0.66666667  0.00000000  0.16666667  1
  V  V1155  1  0.66666667  0.00000000  0.25000000  1
  V  V1156  1  0.66666667  0.00000000  0.33333333  1
  Zr  Zr1157  1  0.66666667  0.00000000  0.41666667  1
  Zr  Zr1158  1  0.66666667  0.00000000  0.50000000  1
  W  W1159  1  0.66666667  0.00000000  0.58333333  1
  W  W1160  1  0.66666667  0.00000000  0.66666667  1
  Zr  Zr1161  1  0.66666667  0.00000000  0.75000000  1
  Zr  Zr1162  1  0.66666667  0.00000000  0.83333333  1
  Zr  Zr1163  1  0.66666667  0.00000000  0.91666667  1
  V  V1164  1  0.66666667  0.08333333  0.00000000  1
  V  V1165  1  0.66666667  0.08333333  0.08333333  1
  V  V1166  1  0.66666667  0.08333333  0.16666667  1
  Cr  Cr1167  1  0.66666667  0.08333333  0.25000000  1
  V  V1168  1  0.66666667  0.08333333  0.33333333  1
  Cr  Cr1169  1  0.66666667  0.08333333  0.41666667  1
  W  W1170  1  0.66666667  0.08333333  0.50000000  1
  V  V1171  1  0.66666667  0.08333333  0.58333333  1
  Cr  Cr1172  1  0.66666667  0.08333333  0.66666667  1
  V  V1173  1  0.66666667  0.08333333  0.75000000  1
  V  V1174  1  0.66666667  0.08333333  0.83333333  1
  Zr  Zr1175  1  0.66666667  0.08333333  0.91666667  1
  V  V1176  1  0.66666667  0.16666667  0.00000000  1
  Ti  Ti1177  1  0.66666667  0.16666667  0.08333333  1
  V  V1178  1  0.66666667  0.16666667  0.16666667  1
  V  V1179  1  0.66666667  0.16666667  0.25000000  1
  V  V1180  1  0.66666667  0.16666667  0.33333333  1
  V  V1181  1  0.66666667  0.16666667  0.41666667  1
  V  V1182  1  0.66666667  0.16666667  0.50000000  1
  V  V1183  1  0.66666667  0.16666667  0.58333333  1
  V  V1184  1  0.66666667  0.16666667  0.66666667  1
  V  V1185  1  0.66666667  0.16666667  0.75000000  1
  V  V1186  1  0.66666667  0.16666667  0.83333333  1
  W  W1187  1  0.66666667  0.16666667  0.91666667  1
  W  W1188  1  0.66666667  0.25000000  0.00000000  1
  W  W1189  1  0.66666667  0.25000000  0.08333333  1
  Ti  Ti1190  1  0.66666667  0.25000000  0.16666667  1
  Cr  Cr1191  1  0.66666667  0.25000000  0.25000000  1
  Cr  Cr1192  1  0.66666667  0.25000000  0.33333333  1
  V  V1193  1  0.66666667  0.25000000  0.41666667  1
  Cr  Cr1194  1  0.66666667  0.25000000  0.50000000  1
  V  V1195  1  0.66666667  0.25000000  0.58333333  1
  W  W1196  1  0.66666667  0.25000000  0.66666667  1
  V  V1197  1  0.66666667  0.25000000  0.75000000  1
  V  V1198  1  0.66666667  0.25000000  0.83333333  1
  V  V1199  1  0.66666667  0.25000000  0.91666667  1
  Zr  Zr1200  1  0.66666667  0.33333333  1.00000000  1
  V  V1201  1  0.66666667  0.33333333  0.08333333  1
  Ti  Ti1202  1  0.66666667  0.33333333  0.16666667  1
  V  V1203  1  0.66666667  0.33333333  0.25000000  1
  V  V1204  1  0.66666667  0.33333333  0.33333333  1
  V  V1205  1  0.66666667  0.33333333  0.41666667  1
  V  V1206  1  0.66666667  0.33333333  0.50000000  1
  V  V1207  1  0.66666667  0.33333333  0.58333333  1
  V  V1208  1  0.66666667  0.33333333  0.66666667  1
  Cr  Cr1209  1  0.66666667  0.33333333  0.75000000  1
  Zr  Zr1210  1  0.66666667  0.33333333  0.83333333  1
  V  V1211  1  0.66666667  0.33333333  0.91666667  1
  V  V1212  1  0.66666667  0.41666667  0.00000000  1
  V  V1213  1  0.66666667  0.41666667  0.08333333  1
  Cr  Cr1214  1  0.66666667  0.41666667  0.16666667  1
  Zr  Zr1215  1  0.66666667  0.41666667  0.25000000  1
  Zr  Zr1216  1  0.66666667  0.41666667  0.33333333  1
  Ti  Ti1217  1  0.66666667  0.41666667  0.41666667  1
  V  V1218  1  0.66666667  0.41666667  0.50000000  1
  W  W1219  1  0.66666667  0.41666667  0.58333333  1
  V  V1220  1  0.66666667  0.41666667  0.66666667  1
  Zr  Zr1221  1  0.66666667  0.41666667  0.75000000  1
  V  V1222  1  0.66666667  0.41666667  0.83333333  1
  Zr  Zr1223  1  0.66666667  0.41666667  0.91666667  1
  V  V1224  1  0.66666667  0.50000000  0.00000000  1
  V  V1225  1  0.66666667  0.50000000  0.08333333  1
  Zr  Zr1226  1  0.66666667  0.50000000  0.16666667  1
  Zr  Zr1227  1  0.66666667  0.50000000  0.25000000  1
  Zr  Zr1228  1  0.66666667  0.50000000  0.33333333  1
  W  W1229  1  0.66666667  0.50000000  0.41666667  1
  V  V1230  1  0.66666667  0.50000000  0.50000000  1
  V  V1231  1  0.66666667  0.50000000  0.58333333  1
  Cr  Cr1232  1  0.66666667  0.50000000  0.66666667  1
  V  V1233  1  0.66666667  0.50000000  0.75000000  1
  Ti  Ti1234  1  0.66666667  0.50000000  0.83333333  1
  Zr  Zr1235  1  0.66666667  0.50000000  0.91666667  1
  V  V1236  1  0.66666667  0.58333333  0.00000000  1
  Ti  Ti1237  1  0.66666667  0.58333333  0.08333333  1
  V  V1238  1  0.66666667  0.58333333  0.16666667  1
  V  V1239  1  0.66666667  0.58333333  0.25000000  1
  Zr  Zr1240  1  0.66666667  0.58333333  0.33333333  1
  V  V1241  1  0.66666667  0.58333333  0.41666667  1
  V  V1242  1  0.66666667  0.58333333  0.50000000  1
  W  W1243  1  0.66666667  0.58333333  0.58333333  1
  V  V1244  1  0.66666667  0.58333333  0.66666667  1
  V  V1245  1  0.66666667  0.58333333  0.75000000  1
  V  V1246  1  0.66666667  0.58333333  0.83333333  1
  V  V1247  1  0.66666667  0.58333333  0.91666667  1
  V  V1248  1  0.66666667  0.66666667  0.00000000  1
  V  V1249  1  0.66666667  0.66666667  0.08333333  1
  V  V1250  1  0.66666667  0.66666667  0.16666667  1
  V  V1251  1  0.66666667  0.66666667  0.25000000  1
  V  V1252  1  0.66666667  0.66666667  0.33333333  1
  V  V1253  1  0.66666667  0.66666667  0.41666667  1
  V  V1254  1  0.66666667  0.66666667  0.50000000  1
  V  V1255  1  0.66666667  0.66666667  0.58333333  1
  V  V1256  1  0.66666667  0.66666667  0.66666667  1
  Cr  Cr1257  1  0.66666667  0.66666667  0.75000000  1
  W  W1258  1  0.66666667  0.66666667  0.83333333  1
  V  V1259  1  0.66666667  0.66666667  0.91666667  1
  W  W1260  1  0.66666667  0.75000000  1.00000000  1
  W  W1261  1  0.66666667  0.75000000  0.08333333  1
  V  V1262  1  0.66666667  0.75000000  0.16666667  1
  V  V1263  1  0.66666667  0.75000000  0.25000000  1
  Cr  Cr1264  1  0.66666667  0.75000000  0.33333333  1
  Zr  Zr1265  1  0.66666667  0.75000000  0.41666667  1
  V  V1266  1  0.66666667  0.75000000  0.50000000  1
  V  V1267  1  0.66666667  0.75000000  0.58333333  1
  V  V1268  1  0.66666667  0.75000000  0.66666667  1
  V  V1269  1  0.66666667  0.75000000  0.75000000  1
  W  W1270  1  0.66666667  0.75000000  0.83333333  1
  V  V1271  1  0.66666667  0.75000000  0.91666667  1
  Zr  Zr1272  1  0.66666667  0.83333333  0.00000000  1
  Cr  Cr1273  1  0.66666667  0.83333333  0.08333333  1
  V  V1274  1  0.66666667  0.83333333  0.16666667  1
  V  V1275  1  0.66666667  0.83333333  0.25000000  1
  V  V1276  1  0.66666667  0.83333333  0.33333333  1
  Cr  Cr1277  1  0.66666667  0.83333333  0.41666667  1
  V  V1278  1  0.66666667  0.83333333  0.50000000  1
  V  V1279  1  0.66666667  0.83333333  0.58333333  1
  V  V1280  1  0.66666667  0.83333333  0.66666667  1
  V  V1281  1  0.66666667  0.83333333  0.75000000  1
  V  V1282  1  0.66666667  0.83333333  0.83333333  1
  Zr  Zr1283  1  0.66666667  0.83333333  0.91666667  1
  Zr  Zr1284  1  0.66666667  0.91666667  1.00000000  1
  Zr  Zr1285  1  0.66666667  0.91666667  0.08333333  1
  V  V1286  1  0.66666667  0.91666667  0.16666667  1
  V  V1287  1  0.66666667  0.91666667  0.25000000  1
  W  W1288  1  0.66666667  0.91666667  0.33333333  1
  V  V1289  1  0.66666667  0.91666667  0.41666667  1
  V  V1290  1  0.66666667  0.91666667  0.50000000  1
  Cr  Cr1291  1  0.66666667  0.91666667  0.58333333  1
  Zr  Zr1292  1  0.66666667  0.91666667  0.66666667  1
  V  V1293  1  0.66666667  0.91666667  0.75000000  1
  Ti  Ti1294  1  0.66666667  0.91666667  0.83333333  1
  Ti  Ti1295  1  0.66666667  0.91666667  0.91666667  1
  Cr  Cr1296  1  0.75000000  0.00000000  0.00000000  1
  V  V1297  1  0.75000000  0.00000000  0.08333333  1
  V  V1298  1  0.75000000  0.00000000  0.16666667  1
  W  W1299  1  0.75000000  0.00000000  0.25000000  1
  V  V1300  1  0.75000000  0.00000000  0.33333333  1
  V  V1301  1  0.75000000  0.00000000  0.41666667  1
  V  V1302  1  0.75000000  0.00000000  0.50000000  1
  V  V1303  1  0.75000000  0.00000000  0.58333333  1
  Zr  Zr1304  1  0.75000000  0.00000000  0.66666667  1
  V  V1305  1  0.75000000  0.00000000  0.75000000  1
  V  V1306  1  0.75000000  0.00000000  0.83333333  1
  V  V1307  1  0.75000000  0.00000000  0.91666667  1
  Cr  Cr1308  1  0.75000000  0.08333333  0.00000000  1
  Ti  Ti1309  1  0.75000000  0.08333333  0.08333333  1
  V  V1310  1  0.75000000  0.08333333  0.16666667  1
  V  V1311  1  0.75000000  0.08333333  0.25000000  1
  V  V1312  1  0.75000000  0.08333333  0.33333333  1
  V  V1313  1  0.75000000  0.08333333  0.41666667  1
  Zr  Zr1314  1  0.75000000  0.08333333  0.50000000  1
  V  V1315  1  0.75000000  0.08333333  0.58333333  1
  Zr  Zr1316  1  0.75000000  0.08333333  0.66666667  1
  Cr  Cr1317  1  0.75000000  0.08333333  0.75000000  1
  V  V1318  1  0.75000000  0.08333333  0.83333333  1
  Cr  Cr1319  1  0.75000000  0.08333333  0.91666667  1
  V  V1320  1  0.75000000  0.16666667  0.00000000  1
  V  V1321  1  0.75000000  0.16666667  0.08333333  1
  V  V1322  1  0.75000000  0.16666667  0.16666667  1
  V  V1323  1  0.75000000  0.16666667  0.25000000  1
  V  V1324  1  0.75000000  0.16666667  0.33333333  1
  Zr  Zr1325  1  0.75000000  0.16666667  0.41666667  1
  W  W1326  1  0.75000000  0.16666667  0.50000000  1
  V  V1327  1  0.75000000  0.16666667  0.58333333  1
  Cr  Cr1328  1  0.75000000  0.16666667  0.66666667  1
  W  W1329  1  0.75000000  0.16666667  0.75000000  1
  Zr  Zr1330  1  0.75000000  0.16666667  0.83333333  1
  Zr  Zr1331  1  0.75000000  0.16666667  0.91666667  1
  V  V1332  1  0.75000000  0.25000000  0.00000000  1
  V  V1333  1  0.75000000  0.25000000  0.08333333  1
  V  V1334  1  0.75000000  0.25000000  0.16666667  1
  V  V1335  1  0.75000000  0.25000000  0.25000000  1
  Cr  Cr1336  1  0.75000000  0.25000000  0.33333333  1
  V  V1337  1  0.75000000  0.25000000  0.41666667  1
  W  W1338  1  0.75000000  0.25000000  0.50000000  1
  V  V1339  1  0.75000000  0.25000000  0.58333333  1
  V  V1340  1  0.75000000  0.25000000  0.66666667  1
  Cr  Cr1341  1  0.75000000  0.25000000  0.75000000  1
  V  V1342  1  0.75000000  0.25000000  0.83333333  1
  V  V1343  1  0.75000000  0.25000000  0.91666667  1
  V  V1344  1  0.75000000  0.33333333  0.00000000  1
  Cr  Cr1345  1  0.75000000  0.33333333  0.08333333  1
  Zr  Zr1346  1  0.75000000  0.33333333  0.16666667  1
  V  V1347  1  0.75000000  0.33333333  0.25000000  1
  V  V1348  1  0.75000000  0.33333333  0.33333333  1
  V  V1349  1  0.75000000  0.33333333  0.41666667  1
  V  V1350  1  0.75000000  0.33333333  0.50000000  1
  V  V1351  1  0.75000000  0.33333333  0.58333333  1
  Zr  Zr1352  1  0.75000000  0.33333333  0.66666667  1
  Ti  Ti1353  1  0.75000000  0.33333333  0.75000000  1
  V  V1354  1  0.75000000  0.33333333  0.83333333  1
  Zr  Zr1355  1  0.75000000  0.33333333  0.91666667  1
  W  W1356  1  0.75000000  0.41666667  0.00000000  1
  V  V1357  1  0.75000000  0.41666667  0.08333333  1
  V  V1358  1  0.75000000  0.41666667  0.16666667  1
  V  V1359  1  0.75000000  0.41666667  0.25000000  1
  V  V1360  1  0.75000000  0.41666667  0.33333333  1
  V  V1361  1  0.75000000  0.41666667  0.41666667  1
  V  V1362  1  0.75000000  0.41666667  0.50000000  1
  V  V1363  1  0.75000000  0.41666667  0.58333333  1
  Ti  Ti1364  1  0.75000000  0.41666667  0.66666667  1
  V  V1365  1  0.75000000  0.41666667  0.75000000  1
  V  V1366  1  0.75000000  0.41666667  0.83333333  1
  W  W1367  1  0.75000000  0.41666667  0.91666667  1
  W  W1368  1  0.75000000  0.50000000  0.00000000  1
  V  V1369  1  0.75000000  0.50000000  0.08333333  1
  V  V1370  1  0.75000000  0.50000000  0.16666667  1
  V  V1371  1  0.75000000  0.50000000  0.25000000  1
  Zr  Zr1372  1  0.75000000  0.50000000  0.33333333  1
  V  V1373  1  0.75000000  0.50000000  0.41666667  1
  V  V1374  1  0.75000000  0.50000000  0.50000000  1
  V  V1375  1  0.75000000  0.50000000  0.58333333  1
  W  W1376  1  0.75000000  0.50000000  0.66666667  1
  V  V1377  1  0.75000000  0.50000000  0.75000000  1
  V  V1378  1  0.75000000  0.50000000  0.83333333  1
  V  V1379  1  0.75000000  0.50000000  0.91666667  1
  Zr  Zr1380  1  0.75000000  0.58333333  0.00000000  1
  V  V1381  1  0.75000000  0.58333333  0.08333333  1
  V  V1382  1  0.75000000  0.58333333  0.16666667  1
  V  V1383  1  0.75000000  0.58333333  0.25000000  1
  V  V1384  1  0.75000000  0.58333333  0.33333333  1
  Cr  Cr1385  1  0.75000000  0.58333333  0.41666667  1
  V  V1386  1  0.75000000  0.58333333  0.50000000  1
  V  V1387  1  0.75000000  0.58333333  0.58333333  1
  Cr  Cr1388  1  0.75000000  0.58333333  0.66666667  1
  V  V1389  1  0.75000000  0.58333333  0.75000000  1
  Zr  Zr1390  1  0.75000000  0.58333333  0.83333333  1
  V  V1391  1  0.75000000  0.58333333  0.91666667  1
  V  V1392  1  0.75000000  0.66666667  0.00000000  1
  V  V1393  1  0.75000000  0.66666667  0.08333333  1
  V  V1394  1  0.75000000  0.66666667  0.16666667  1
  V  V1395  1  0.75000000  0.66666667  0.25000000  1
  V  V1396  1  0.75000000  0.66666667  0.33333333  1
  Cr  Cr1397  1  0.75000000  0.66666667  0.41666667  1
  V  V1398  1  0.75000000  0.66666667  0.50000000  1
  V  V1399  1  0.75000000  0.66666667  0.58333333  1
  V  V1400  1  0.75000000  0.66666667  0.66666667  1
  V  V1401  1  0.75000000  0.66666667  0.75000000  1
  Zr  Zr1402  1  0.75000000  0.66666667  0.83333333  1
  V  V1403  1  0.75000000  0.66666667  0.91666667  1
  Cr  Cr1404  1  0.75000000  0.75000000  1.00000000  1
  V  V1405  1  0.75000000  0.75000000  0.08333333  1
  W  W1406  1  0.75000000  0.75000000  0.16666667  1
  V  V1407  1  0.75000000  0.75000000  0.25000000  1
  Cr  Cr1408  1  0.75000000  0.75000000  0.33333333  1
  V  V1409  1  0.75000000  0.75000000  0.41666667  1
  Cr  Cr1410  1  0.75000000  0.75000000  0.50000000  1
  V  V1411  1  0.75000000  0.75000000  0.58333333  1
  V  V1412  1  0.75000000  0.75000000  0.66666667  1
  V  V1413  1  0.75000000  0.75000000  0.75000000  1
  V  V1414  1  0.75000000  0.75000000  0.83333333  1
  V  V1415  1  0.75000000  0.75000000  0.91666667  1
  Cr  Cr1416  1  0.75000000  0.83333333  1.00000000  1
  V  V1417  1  0.75000000  0.83333333  0.08333333  1
  V  V1418  1  0.75000000  0.83333333  0.16666667  1
  Zr  Zr1419  1  0.75000000  0.83333333  0.25000000  1
  V  V1420  1  0.75000000  0.83333333  0.33333333  1
  V  V1421  1  0.75000000  0.83333333  0.41666667  1
  V  V1422  1  0.75000000  0.83333333  0.50000000  1
  V  V1423  1  0.75000000  0.83333333  0.58333333  1
  V  V1424  1  0.75000000  0.83333333  0.66666667  1
  Ti  Ti1425  1  0.75000000  0.83333333  0.75000000  1
  V  V1426  1  0.75000000  0.83333333  0.83333333  1
  V  V1427  1  0.75000000  0.83333333  0.91666667  1
  Ti  Ti1428  1  0.75000000  0.91666667  0.00000000  1
  V  V1429  1  0.75000000  0.91666667  0.08333333  1
  Zr  Zr1430  1  0.75000000  0.91666667  0.16666667  1
  Ti  Ti1431  1  0.75000000  0.91666667  0.25000000  1
  V  V1432  1  0.75000000  0.91666667  0.33333333  1
  W  W1433  1  0.75000000  0.91666667  0.41666667  1
  V  V1434  1  0.75000000  0.91666667  0.50000000  1
  Zr  Zr1435  1  0.75000000  0.91666667  0.58333333  1
  Cr  Cr1436  1  0.75000000  0.91666667  0.66666667  1
  Ti  Ti1437  1  0.75000000  0.91666667  0.75000000  1
  V  V1438  1  0.75000000  0.91666667  0.83333333  1
  V  V1439  1  0.75000000  0.91666667  0.91666667  1
  V  V1440  1  0.83333333  0.00000000  1.00000000  1
  V  V1441  1  0.83333333  0.00000000  0.08333333  1
  Zr  Zr1442  1  0.83333333  0.00000000  0.16666667  1
  Ti  Ti1443  1  0.83333333  0.00000000  0.25000000  1
  V  V1444  1  0.83333333  0.00000000  0.33333333  1
  V  V1445  1  0.83333333  0.00000000  0.41666667  1
  V  V1446  1  0.83333333  0.00000000  0.50000000  1
  V  V1447  1  0.83333333  0.00000000  0.58333333  1
  V  V1448  1  0.83333333  0.00000000  0.66666667  1
  Ti  Ti1449  1  0.83333333  0.00000000  0.75000000  1
  W  W1450  1  0.83333333  0.00000000  0.83333333  1
  Cr  Cr1451  1  0.83333333  0.00000000  0.91666667  1
  W  W1452  1  0.83333333  0.08333333  1.00000000  1
  V  V1453  1  0.83333333  0.08333333  0.08333333  1
  V  V1454  1  0.83333333  0.08333333  0.16666667  1
  W  W1455  1  0.83333333  0.08333333  0.25000000  1
  Zr  Zr1456  1  0.83333333  0.08333333  0.33333333  1
  V  V1457  1  0.83333333  0.08333333  0.41666667  1
  Cr  Cr1458  1  0.83333333  0.08333333  0.50000000  1
  V  V1459  1  0.83333333  0.08333333  0.58333333  1
  V  V1460  1  0.83333333  0.08333333  0.66666667  1
  Zr  Zr1461  1  0.83333333  0.08333333  0.75000000  1
  V  V1462  1  0.83333333  0.08333333  0.83333333  1
  V  V1463  1  0.83333333  0.08333333  0.91666667  1
  V  V1464  1  0.83333333  0.16666667  1.00000000  1
  Cr  Cr1465  1  0.83333333  0.16666667  0.08333333  1
  V  V1466  1  0.83333333  0.16666667  0.16666667  1
  V  V1467  1  0.83333333  0.16666667  0.25000000  1
  V  V1468  1  0.83333333  0.16666667  0.33333333  1
  V  V1469  1  0.83333333  0.16666667  0.41666667  1
  V  V1470  1  0.83333333  0.16666667  0.50000000  1
  V  V1471  1  0.83333333  0.16666667  0.58333333  1
  V  V1472  1  0.83333333  0.16666667  0.66666667  1
  Zr  Zr1473  1  0.83333333  0.16666667  0.75000000  1
  V  V1474  1  0.83333333  0.16666667  0.83333333  1
  V  V1475  1  0.83333333  0.16666667  0.91666667  1
  V  V1476  1  0.83333333  0.25000000  0.00000000  1
  V  V1477  1  0.83333333  0.25000000  0.08333333  1
  V  V1478  1  0.83333333  0.25000000  0.16666667  1
  Ti  Ti1479  1  0.83333333  0.25000000  0.25000000  1
  Cr  Cr1480  1  0.83333333  0.25000000  0.33333333  1
  V  V1481  1  0.83333333  0.25000000  0.41666667  1
  Zr  Zr1482  1  0.83333333  0.25000000  0.50000000  1
  Cr  Cr1483  1  0.83333333  0.25000000  0.58333333  1
  V  V1484  1  0.83333333  0.25000000  0.66666667  1
  W  W1485  1  0.83333333  0.25000000  0.75000000  1
  V  V1486  1  0.83333333  0.25000000  0.83333333  1
  W  W1487  1  0.83333333  0.25000000  0.91666667  1
  V  V1488  1  0.83333333  0.33333333  1.00000000  1
  V  V1489  1  0.83333333  0.33333333  0.08333333  1
  V  V1490  1  0.83333333  0.33333333  0.16666667  1
  W  W1491  1  0.83333333  0.33333333  0.25000000  1
  Cr  Cr1492  1  0.83333333  0.33333333  0.33333333  1
  V  V1493  1  0.83333333  0.33333333  0.41666667  1
  V  V1494  1  0.83333333  0.33333333  0.50000000  1
  V  V1495  1  0.83333333  0.33333333  0.58333333  1
  Ti  Ti1496  1  0.83333333  0.33333333  0.66666667  1
  V  V1497  1  0.83333333  0.33333333  0.75000000  1
  V  V1498  1  0.83333333  0.33333333  0.83333333  1
  Cr  Cr1499  1  0.83333333  0.33333333  0.91666667  1
  V  V1500  1  0.83333333  0.41666667  0.00000000  1
  V  V1501  1  0.83333333  0.41666667  0.08333333  1
  V  V1502  1  0.83333333  0.41666667  0.16666667  1
  Ti  Ti1503  1  0.83333333  0.41666667  0.25000000  1
  V  V1504  1  0.83333333  0.41666667  0.33333333  1
  W  W1505  1  0.83333333  0.41666667  0.41666667  1
  V  V1506  1  0.83333333  0.41666667  0.50000000  1
  V  V1507  1  0.83333333  0.41666667  0.58333333  1
  V  V1508  1  0.83333333  0.41666667  0.66666667  1
  W  W1509  1  0.83333333  0.41666667  0.75000000  1
  Zr  Zr1510  1  0.83333333  0.41666667  0.83333333  1
  V  V1511  1  0.83333333  0.41666667  0.91666667  1
  V  V1512  1  0.83333333  0.50000000  0.00000000  1
  Zr  Zr1513  1  0.83333333  0.50000000  0.08333333  1
  Cr  Cr1514  1  0.83333333  0.50000000  0.16666667  1
  W  W1515  1  0.83333333  0.50000000  0.25000000  1
  V  V1516  1  0.83333333  0.50000000  0.33333333  1
  V  V1517  1  0.83333333  0.50000000  0.41666667  1
  Cr  Cr1518  1  0.83333333  0.50000000  0.50000000  1
  V  V1519  1  0.83333333  0.50000000  0.58333333  1
  W  W1520  1  0.83333333  0.50000000  0.66666667  1
  V  V1521  1  0.83333333  0.50000000  0.75000000  1
  V  V1522  1  0.83333333  0.50000000  0.83333333  1
  V  V1523  1  0.83333333  0.50000000  0.91666667  1
  Ti  Ti1524  1  0.83333333  0.58333333  1.00000000  1
  V  V1525  1  0.83333333  0.58333333  0.08333333  1
  V  V1526  1  0.83333333  0.58333333  0.16666667  1
  V  V1527  1  0.83333333  0.58333333  0.25000000  1
  V  V1528  1  0.83333333  0.58333333  0.33333333  1
  V  V1529  1  0.83333333  0.58333333  0.41666667  1
  V  V1530  1  0.83333333  0.58333333  0.50000000  1
  W  W1531  1  0.83333333  0.58333333  0.58333333  1
  V  V1532  1  0.83333333  0.58333333  0.66666667  1
  V  V1533  1  0.83333333  0.58333333  0.75000000  1
  V  V1534  1  0.83333333  0.58333333  0.83333333  1
  V  V1535  1  0.83333333  0.58333333  0.91666667  1
  V  V1536  1  0.83333333  0.66666667  1.00000000  1
  V  V1537  1  0.83333333  0.66666667  0.08333333  1
  W  W1538  1  0.83333333  0.66666667  0.16666667  1
  V  V1539  1  0.83333333  0.66666667  0.25000000  1
  Cr  Cr1540  1  0.83333333  0.66666667  0.33333333  1
  V  V1541  1  0.83333333  0.66666667  0.41666667  1
  W  W1542  1  0.83333333  0.66666667  0.50000000  1
  W  W1543  1  0.83333333  0.66666667  0.58333333  1
  W  W1544  1  0.83333333  0.66666667  0.66666667  1
  V  V1545  1  0.83333333  0.66666667  0.75000000  1
  V  V1546  1  0.83333333  0.66666667  0.83333333  1
  V  V1547  1  0.83333333  0.66666667  0.91666667  1
  Cr  Cr1548  1  0.83333333  0.75000000  1.00000000  1
  W  W1549  1  0.83333333  0.75000000  0.08333333  1
  Zr  Zr1550  1  0.83333333  0.75000000  0.16666667  1
  W  W1551  1  0.83333333  0.75000000  0.25000000  1
  V  V1552  1  0.83333333  0.75000000  0.33333333  1
  V  V1553  1  0.83333333  0.75000000  0.41666667  1
  Cr  Cr1554  1  0.83333333  0.75000000  0.50000000  1
  V  V1555  1  0.83333333  0.75000000  0.58333333  1
  V  V1556  1  0.83333333  0.75000000  0.66666667  1
  Cr  Cr1557  1  0.83333333  0.75000000  0.75000000  1
  V  V1558  1  0.83333333  0.75000000  0.83333333  1
  V  V1559  1  0.83333333  0.75000000  0.91666667  1
  V  V1560  1  0.83333333  0.83333333  1.00000000  1
  V  V1561  1  0.83333333  0.83333333  0.08333333  1
  V  V1562  1  0.83333333  0.83333333  0.16666667  1
  V  V1563  1  0.83333333  0.83333333  0.25000000  1
  Ti  Ti1564  1  0.83333333  0.83333333  0.33333333  1
  W  W1565  1  0.83333333  0.83333333  0.41666667  1
  Zr  Zr1566  1  0.83333333  0.83333333  0.50000000  1
  V  V1567  1  0.83333333  0.83333333  0.58333333  1
  Cr  Cr1568  1  0.83333333  0.83333333  0.66666667  1
  V  V1569  1  0.83333333  0.83333333  0.75000000  1
  V  V1570  1  0.83333333  0.83333333  0.83333333  1
  Ti  Ti1571  1  0.83333333  0.83333333  0.91666667  1
  V  V1572  1  0.83333333  0.91666667  1.00000000  1
  Ti  Ti1573  1  0.83333333  0.91666667  0.08333333  1
  V  V1574  1  0.83333333  0.91666667  0.16666667  1
  V  V1575  1  0.83333333  0.91666667  0.25000000  1
  Zr  Zr1576  1  0.83333333  0.91666667  0.33333333  1
  W  W1577  1  0.83333333  0.91666667  0.41666667  1
  Zr  Zr1578  1  0.83333333  0.91666667  0.50000000  1
  V  V1579  1  0.83333333  0.91666667  0.58333333  1
  V  V1580  1  0.83333333  0.91666667  0.66666667  1
  Cr  Cr1581  1  0.83333333  0.91666667  0.75000000  1
  V  V1582  1  0.83333333  0.91666667  0.83333333  1
  V  V1583  1  0.83333333  0.91666667  0.91666667  1
  V  V1584  1  0.91666667  0.00000000  0.00000000  1
  V  V1585  1  0.91666667  0.00000000  0.08333333  1
  V  V1586  1  0.91666667  0.00000000  0.16666667  1
  W  W1587  1  0.91666667  0.00000000  0.25000000  1
  V  V1588  1  0.91666667  0.00000000  0.33333333  1
  V  V1589  1  0.91666667  0.00000000  0.41666667  1
  Cr  Cr1590  1  0.91666667  0.00000000  0.50000000  1
  V  V1591  1  0.91666667  0.00000000  0.58333333  1
  W  W1592  1  0.91666667  0.00000000  0.66666667  1
  V  V1593  1  0.91666667  0.00000000  0.75000000  1
  Ti  Ti1594  1  0.91666667  0.00000000  0.83333333  1
  Cr  Cr1595  1  0.91666667  0.00000000  0.91666667  1
  W  W1596  1  0.91666667  0.08333333  1.00000000  1
  V  V1597  1  0.91666667  0.08333333  0.08333333  1
  W  W1598  1  0.91666667  0.08333333  0.16666667  1
  W  W1599  1  0.91666667  0.08333333  0.25000000  1
  W  W1600  1  0.91666667  0.08333333  0.33333333  1
  V  V1601  1  0.91666667  0.08333333  0.41666667  1
  V  V1602  1  0.91666667  0.08333333  0.50000000  1
  V  V1603  1  0.91666667  0.08333333  0.58333333  1
  V  V1604  1  0.91666667  0.08333333  0.66666667  1
  V  V1605  1  0.91666667  0.08333333  0.75000000  1
  V  V1606  1  0.91666667  0.08333333  0.83333333  1
  V  V1607  1  0.91666667  0.08333333  0.91666667  1
  W  W1608  1  0.91666667  0.16666667  0.00000000  1
  V  V1609  1  0.91666667  0.16666667  0.08333333  1
  V  V1610  1  0.91666667  0.16666667  0.16666667  1
  V  V1611  1  0.91666667  0.16666667  0.25000000  1
  V  V1612  1  0.91666667  0.16666667  0.33333333  1
  V  V1613  1  0.91666667  0.16666667  0.41666667  1
  Zr  Zr1614  1  0.91666667  0.16666667  0.50000000  1
  Cr  Cr1615  1  0.91666667  0.16666667  0.58333333  1
  V  V1616  1  0.91666667  0.16666667  0.66666667  1
  V  V1617  1  0.91666667  0.16666667  0.75000000  1
  W  W1618  1  0.91666667  0.16666667  0.83333333  1
  V  V1619  1  0.91666667  0.16666667  0.91666667  1
  V  V1620  1  0.91666667  0.25000000  0.00000000  1
  V  V1621  1  0.91666667  0.25000000  0.08333333  1
  Cr  Cr1622  1  0.91666667  0.25000000  0.16666667  1
  V  V1623  1  0.91666667  0.25000000  0.25000000  1
  V  V1624  1  0.91666667  0.25000000  0.33333333  1
  Zr  Zr1625  1  0.91666667  0.25000000  0.41666667  1
  Zr  Zr1626  1  0.91666667  0.25000000  0.50000000  1
  V  V1627  1  0.91666667  0.25000000  0.58333333  1
  Cr  Cr1628  1  0.91666667  0.25000000  0.66666667  1
  W  W1629  1  0.91666667  0.25000000  0.75000000  1
  Zr  Zr1630  1  0.91666667  0.25000000  0.83333333  1
  V  V1631  1  0.91666667  0.25000000  0.91666667  1
  W  W1632  1  0.91666667  0.33333333  1.00000000  1
  Cr  Cr1633  1  0.91666667  0.33333333  0.08333333  1
  Cr  Cr1634  1  0.91666667  0.33333333  0.16666667  1
  W  W1635  1  0.91666667  0.33333333  0.25000000  1
  Cr  Cr1636  1  0.91666667  0.33333333  0.33333333  1
  V  V1637  1  0.91666667  0.33333333  0.41666667  1
  W  W1638  1  0.91666667  0.33333333  0.50000000  1
  Cr  Cr1639  1  0.91666667  0.33333333  0.58333333  1
  Cr  Cr1640  1  0.91666667  0.33333333  0.66666667  1
  V  V1641  1  0.91666667  0.33333333  0.75000000  1
  Zr  Zr1642  1  0.91666667  0.33333333  0.83333333  1
  V  V1643  1  0.91666667  0.33333333  0.91666667  1
  V  V1644  1  0.91666667  0.41666667  0.00000000  1
  V  V1645  1  0.91666667  0.41666667  0.08333333  1
  V  V1646  1  0.91666667  0.41666667  0.16666667  1
  Zr  Zr1647  1  0.91666667  0.41666667  0.25000000  1
  V  V1648  1  0.91666667  0.41666667  0.33333333  1
  V  V1649  1  0.91666667  0.41666667  0.41666667  1
  W  W1650  1  0.91666667  0.41666667  0.50000000  1
  V  V1651  1  0.91666667  0.41666667  0.58333333  1
  V  V1652  1  0.91666667  0.41666667  0.66666667  1
  Zr  Zr1653  1  0.91666667  0.41666667  0.75000000  1
  Cr  Cr1654  1  0.91666667  0.41666667  0.83333333  1
  V  V1655  1  0.91666667  0.41666667  0.91666667  1
  Ti  Ti1656  1  0.91666667  0.50000000  0.00000000  1
  Ti  Ti1657  1  0.91666667  0.50000000  0.08333333  1
  V  V1658  1  0.91666667  0.50000000  0.16666667  1
  Zr  Zr1659  1  0.91666667  0.50000000  0.25000000  1
  Cr  Cr1660  1  0.91666667  0.50000000  0.33333333  1
  W  W1661  1  0.91666667  0.50000000  0.41666667  1
  V  V1662  1  0.91666667  0.50000000  0.50000000  1
  V  V1663  1  0.91666667  0.50000000  0.58333333  1
  Cr  Cr1664  1  0.91666667  0.50000000  0.66666667  1
  Ti  Ti1665  1  0.91666667  0.50000000  0.75000000  1
  V  V1666  1  0.91666667  0.50000000  0.83333333  1
  V  V1667  1  0.91666667  0.50000000  0.91666667  1
  V  V1668  1  0.91666667  0.58333333  0.00000000  1
  V  V1669  1  0.91666667  0.58333333  0.08333333  1
  W  W1670  1  0.91666667  0.58333333  0.16666667  1
  V  V1671  1  0.91666667  0.58333333  0.25000000  1
  V  V1672  1  0.91666667  0.58333333  0.33333333  1
  W  W1673  1  0.91666667  0.58333333  0.41666667  1
  Cr  Cr1674  1  0.91666667  0.58333333  0.50000000  1
  V  V1675  1  0.91666667  0.58333333  0.58333333  1
  V  V1676  1  0.91666667  0.58333333  0.66666667  1
  W  W1677  1  0.91666667  0.58333333  0.75000000  1
  V  V1678  1  0.91666667  0.58333333  0.83333333  1
  Cr  Cr1679  1  0.91666667  0.58333333  0.91666667  1
  V  V1680  1  0.91666667  0.66666667  1.00000000  1
  V  V1681  1  0.91666667  0.66666667  0.08333333  1
  V  V1682  1  0.91666667  0.66666667  0.16666667  1
  V  V1683  1  0.91666667  0.66666667  0.25000000  1
  V  V1684  1  0.91666667  0.66666667  0.33333333  1
  V  V1685  1  0.91666667  0.66666667  0.41666667  1
  V  V1686  1  0.91666667  0.66666667  0.50000000  1
  Zr  Zr1687  1  0.91666667  0.66666667  0.58333333  1
  V  V1688  1  0.91666667  0.66666667  0.66666667  1
  W  W1689  1  0.91666667  0.66666667  0.75000000  1
  V  V1690  1  0.91666667  0.66666667  0.83333333  1
  V  V1691  1  0.91666667  0.66666667  0.91666667  1
  V  V1692  1  0.91666667  0.75000000  1.00000000  1
  V  V1693  1  0.91666667  0.75000000  0.08333333  1
  Zr  Zr1694  1  0.91666667  0.75000000  0.16666667  1
  V  V1695  1  0.91666667  0.75000000  0.25000000  1
  W  W1696  1  0.91666667  0.75000000  0.33333333  1
  V  V1697  1  0.91666667  0.75000000  0.41666667  1
  Cr  Cr1698  1  0.91666667  0.75000000  0.50000000  1
  Zr  Zr1699  1  0.91666667  0.75000000  0.58333333  1
  V  V1700  1  0.91666667  0.75000000  0.66666667  1
  V  V1701  1  0.91666667  0.75000000  0.75000000  1
  Ti  Ti1702  1  0.91666667  0.75000000  0.83333333  1
  V  V1703  1  0.91666667  0.75000000  0.91666667  1
  V  V1704  1  0.91666667  0.83333333  1.00000000  1
  V  V1705  1  0.91666667  0.83333333  0.08333333  1
  V  V1706  1  0.91666667  0.83333333  0.16666667  1
  V  V1707  1  0.91666667  0.83333333  0.25000000  1
  W  W1708  1  0.91666667  0.83333333  0.33333333  1
  V  V1709  1  0.91666667  0.83333333  0.41666667  1
  V  V1710  1  0.91666667  0.83333333  0.50000000  1
  Cr  Cr1711  1  0.91666667  0.83333333  0.58333333  1
  V  V1712  1  0.91666667  0.83333333  0.66666667  1
  W  W1713  1  0.91666667  0.83333333  0.75000000  1
  V  V1714  1  0.91666667  0.83333333  0.83333333  1
  Cr  Cr1715  1  0.91666667  0.83333333  0.91666667  1
  W  W1716  1  0.91666667  0.91666667  1.00000000  1
  V  V1717  1  0.91666667  0.91666667  0.08333333  1
  V  V1718  1  0.91666667  0.91666667  0.16666667  1
  V  V1719  1  0.91666667  0.91666667  0.25000000  1
  V  V1720  1  0.91666667  0.91666667  0.33333333  1
  Cr  Cr1721  1  0.91666667  0.91666667  0.41666667  1
  V  V1722  1  0.91666667  0.91666667  0.50000000  1
  Zr  Zr1723  1  0.91666667  0.91666667  0.58333333  1
  V  V1724  1  0.91666667  0.91666667  0.66666667  1
  Ti  Ti1725  1  0.91666667  0.91666667  0.75000000  1
  V  V1726  1  0.91666667  0.91666667  0.83333333  1
  Ti  Ti1727  1  0.91666667  0.91666667  0.91666667  1
