# generated using pymatgen
data_Zr189Ti107V1056(CrW)188
_symmetry_space_group_name_H-M   'P 1'
_cell_length_a   31.28083764
_cell_length_b   31.28083764
_cell_length_c   31.28083764
_cell_angle_alpha   109.47122063
_cell_angle_beta   109.47122063
_cell_angle_gamma   109.47122063
_symmetry_Int_Tables_number   1
_chemical_formula_structural   Zr189Ti107V1056(CrW)188
_chemical_formula_sum   'Zr189 Ti107 V1056 Cr188 W188'
_cell_volume   23562.05859289
_cell_formula_units_Z   1
loop_
 _symmetry_equiv_pos_site_id
 _symmetry_equiv_pos_as_xyz
  1  'x, y, z'
loop_
 _atom_site_type_symbol
 _atom_site_label
 _atom_site_symmetry_multiplicity
 _atom_site_fract_x
 _atom_site_fract_y
 _atom_site_fract_z
 _atom_site_occupancy
  W  W0  1  0.00000000  0.00000000  0.00000000  1
  V  V1  1  0.00000000  0.00000000  0.08333333  1
  V  V2  1  0.00000000  0.00000000  0.16666667  1
  V  V3  1  0.00000000  0.00000000  0.25000000  1
  W  W4  1  0.00000000  0.00000000  0.33333333  1
  V  V5  1  0.00000000  0.00000000  0.41666667  1
  Cr  Cr6  1  0.00000000  0.00000000  0.50000000  1
  V  V7  1  0.00000000  0.00000000  0.58333333  1
  V  V8  1  0.00000000  0.00000000  0.66666667  1
  V  V9  1  0.00000000  0.00000000  0.75000000  1
  V  V10  1  0.00000000  0.00000000  0.83333333  1
  V  V11  1  0.00000000  0.00000000  0.91666667  1
  V  V12  1  0.00000000  0.08333333  0.00000000  1
  V  V13  1  0.00000000  0.08333333  0.08333333  1
  V  V14  1  0.00000000  0.08333333  0.16666667  1
  W  W15  1  0.00000000  0.08333333  0.25000000  1
  V  V16  1  0.00000000  0.08333333  0.33333333  1
  W  W17  1  0.00000000  0.08333333  0.41666667  1
  V  V18  1  0.00000000  0.08333333  0.50000000  1
  V  V19  1  0.00000000  0.08333333  0.58333333  1
  V  V20  1  0.00000000  0.08333333  0.66666667  1
  V  V21  1  0.00000000  0.08333333  0.75000000  1
  W  W22  1  0.00000000  0.08333333  0.83333333  1
  V  V23  1  0.00000000  0.08333333  0.91666667  1
  V  V24  1  0.00000000  0.16666667  0.00000000  1
  W  W25  1  0.00000000  0.16666667  0.08333333  1
  V  V26  1  0.00000000  0.16666667  0.16666667  1
  V  V27  1  0.00000000  0.16666667  0.25000000  1
  V  V28  1  0.00000000  0.16666667  0.33333333  1
  V  V29  1  0.00000000  0.16666667  0.41666667  1
  V  V30  1  0.00000000  0.16666667  0.50000000  1
  V  V31  1  0.00000000  0.16666667  0.58333333  1
  V  V32  1  0.00000000  0.16666667  0.66666667  1
  V  V33  1  0.00000000  0.16666667  0.75000000  1
  V  V34  1  0.00000000  0.16666667  0.83333333  1
  V  V35  1  0.00000000  0.16666667  0.91666667  1
  V  V36  1  0.00000000  0.25000000  0.00000000  1
  V  V37  1  0.00000000  0.25000000  0.08333333  1
  V  V38  1  0.00000000  0.25000000  0.16666667  1
  V  V39  1  0.00000000  0.25000000  0.25000000  1
  V  V40  1  0.00000000  0.25000000  0.33333333  1
  Cr  Cr41  1  0.00000000  0.25000000  0.41666667  1
  Cr  Cr42  1  0.00000000  0.25000000  0.50000000  1
  V  V43  1  0.00000000  0.25000000  0.58333333  1
  W  W44  1  0.00000000  0.25000000  0.66666667  1
  V  V45  1  0.00000000  0.25000000  0.75000000  1
  V  V46  1  0.00000000  0.25000000  0.83333333  1
  V  V47  1  0.00000000  0.25000000  0.91666667  1
  V  V48  1  0.00000000  0.33333333  0.00000000  1
  V  V49  1  0.00000000  0.33333333  0.08333333  1
  V  V50  1  0.00000000  0.33333333  0.16666667  1
  Cr  Cr51  1  0.00000000  0.33333333  0.25000000  1
  Cr  Cr52  1  0.00000000  0.33333333  0.33333333  1
  Cr  Cr53  1  0.00000000  0.33333333  0.41666667  1
  Cr  Cr54  1  0.00000000  0.33333333  0.50000000  1
  Cr  Cr55  1  0.00000000  0.33333333  0.58333333  1
  V  V56  1  0.00000000  0.33333333  0.66666667  1
  V  V57  1  0.00000000  0.33333333  0.75000000  1
  V  V58  1  0.00000000  0.33333333  0.83333333  1
  V  V59  1  0.00000000  0.33333333  0.91666667  1
  V  V60  1  0.00000000  0.41666667  0.00000000  1
  V  V61  1  0.00000000  0.41666667  0.08333333  1
  V  V62  1  0.00000000  0.41666667  0.16666667  1
  V  V63  1  0.00000000  0.41666667  0.25000000  1
  Cr  Cr64  1  0.00000000  0.41666667  0.33333333  1
  Cr  Cr65  1  0.00000000  0.41666667  0.41666667  1
  Cr  Cr66  1  0.00000000  0.41666667  0.50000000  1
  Cr  Cr67  1  0.00000000  0.41666667  0.58333333  1
  Cr  Cr68  1  0.00000000  0.41666667  0.66666667  1
  Cr  Cr69  1  0.00000000  0.41666667  0.75000000  1
  V  V70  1  0.00000000  0.41666667  0.83333333  1
  V  V71  1  0.00000000  0.41666667  0.91666667  1
  W  W72  1  0.00000000  0.50000000  0.00000000  1
  V  V73  1  0.00000000  0.50000000  0.08333333  1
  V  V74  1  0.00000000  0.50000000  0.16666667  1
  V  V75  1  0.00000000  0.50000000  0.25000000  1
  Cr  Cr76  1  0.00000000  0.50000000  0.33333333  1
  Cr  Cr77  1  0.00000000  0.50000000  0.41666667  1
  Cr  Cr78  1  0.00000000  0.50000000  0.50000000  1
  Cr  Cr79  1  0.00000000  0.50000000  0.58333333  1
  Cr  Cr80  1  0.00000000  0.50000000  0.66666667  1
  V  V81  1  0.00000000  0.50000000  0.75000000  1
  W  W82  1  0.00000000  0.50000000  0.83333333  1
  V  V83  1  0.00000000  0.50000000  0.91666667  1
  V  V84  1  0.00000000  0.58333333  0.00000000  1
  V  V85  1  0.00000000  0.58333333  0.08333333  1
  V  V86  1  0.00000000  0.58333333  0.16666667  1
  Cr  Cr87  1  0.00000000  0.58333333  0.25000000  1
  Cr  Cr88  1  0.00000000  0.58333333  0.33333333  1
  Cr  Cr89  1  0.00000000  0.58333333  0.41666667  1
  Cr  Cr90  1  0.00000000  0.58333333  0.50000000  1
  Cr  Cr91  1  0.00000000  0.58333333  0.58333333  1
  Cr  Cr92  1  0.00000000  0.58333333  0.66666667  1
  Cr  Cr93  1  0.00000000  0.58333333  0.75000000  1
  V  V94  1  0.00000000  0.58333333  0.83333333  1
  V  V95  1  0.00000000  0.58333333  0.91666667  1
  W  W96  1  1.00000000  0.66666667  1.00000000  1
  V  V97  1  1.00000000  0.66666667  0.08333333  1
  V  V98  1  1.00000000  0.66666667  0.16666667  1
  V  V99  1  1.00000000  0.66666667  0.25000000  1
  V  V100  1  1.00000000  0.66666667  0.33333333  1
  Cr  Cr101  1  1.00000000  0.66666667  0.41666667  1
  Cr  Cr102  1  1.00000000  0.66666667  0.50000000  1
  Cr  Cr103  1  1.00000000  0.66666667  0.58333333  1
  Cr  Cr104  1  1.00000000  0.66666667  0.66666667  1
  Cr  Cr105  1  1.00000000  0.66666667  0.75000000  1
  V  V106  1  1.00000000  0.66666667  0.83333333  1
  V  V107  1  1.00000000  0.66666667  0.91666667  1
  V  V108  1  1.00000000  0.75000000  1.00000000  1
  V  V109  1  1.00000000  0.75000000  0.08333333  1
  W  W110  1  1.00000000  0.75000000  0.16666667  1
  V  V111  1  1.00000000  0.75000000  0.25000000  1
  V  V112  1  1.00000000  0.75000000  0.33333333  1
  V  V113  1  1.00000000  0.75000000  0.41666667  1
  Cr  Cr114  1  1.00000000  0.75000000  0.50000000  1
  Cr  Cr115  1  1.00000000  0.75000000  0.58333333  1
  Cr  Cr116  1  1.00000000  0.75000000  0.66666667  1
  V  V117  1  1.00000000  0.75000000  0.75000000  1
  V  V118  1  1.00000000  0.75000000  0.83333333  1
  V  V119  1  1.00000000  0.75000000  0.91666667  1
  V  V120  1  1.00000000  0.83333333  1.00000000  1
  W  W121  1  1.00000000  0.83333333  0.08333333  1
  V  V122  1  1.00000000  0.83333333  0.16666667  1
  W  W123  1  1.00000000  0.83333333  0.25000000  1
  V  V124  1  1.00000000  0.83333333  0.33333333  1
  V  V125  1  1.00000000  0.83333333  0.41666667  1
  V  V126  1  1.00000000  0.83333333  0.50000000  1
  Cr  Cr127  1  1.00000000  0.83333333  0.58333333  1
  W  W128  1  1.00000000  0.83333333  0.66666667  1
  V  V129  1  1.00000000  0.83333333  0.75000000  1
  W  W130  1  1.00000000  0.83333333  0.83333333  1
  V  V131  1  1.00000000  0.83333333  0.91666667  1
  V  V132  1  1.00000000  0.91666667  1.00000000  1
  V  V133  1  1.00000000  0.91666667  0.08333333  1
  V  V134  1  1.00000000  0.91666667  0.16666667  1
  V  V135  1  1.00000000  0.91666667  0.25000000  1
  V  V136  1  1.00000000  0.91666667  0.33333333  1
  V  V137  1  1.00000000  0.91666667  0.41666667  1
  W  W138  1  1.00000000  0.91666667  0.50000000  1
  V  V139  1  1.00000000  0.91666667  0.58333333  1
  V  V140  1  1.00000000  0.91666667  0.66666667  1
  V  V141  1  1.00000000  0.91666667  0.75000000  1
  V  V142  1  1.00000000  0.91666667  0.83333333  1
  V  V143  1  1.00000000  0.91666667  0.91666667  1
  W  W144  1  0.08333333  0.00000000  0.00000000  1
  V  V145  1  0.08333333  0.00000000  0.08333333  1
  V  V146  1  0.08333333  0.00000000  0.16666667  1
  V  V147  1  0.08333333  0.00000000  0.25000000  1
  V  V148  1  0.08333333  0.00000000  0.33333333  1
  V  V149  1  0.08333333  0.00000000  0.41666667  1
  W  W150  1  0.08333333  0.00000000  0.50000000  1
  V  V151  1  0.08333333  0.00000000  0.58333333  1
  V  V152  1  0.08333333  0.00000000  0.66666667  1
  V  V153  1  0.08333333  0.00000000  0.75000000  1
  V  V154  1  0.08333333  0.00000000  0.83333333  1
  V  V155  1  0.08333333  0.00000000  0.91666667  1
  V  V156  1  0.08333333  0.08333333  0.00000000  1
  W  W157  1  0.08333333  0.08333333  0.08333333  1
  V  V158  1  0.08333333  0.08333333  0.16666667  1
  V  V159  1  0.08333333  0.08333333  0.25000000  1
  V  V160  1  0.08333333  0.08333333  0.33333333  1
  V  V161  1  0.08333333  0.08333333  0.41666667  1
  V  V162  1  0.08333333  0.08333333  0.50000000  1
  V  V163  1  0.08333333  0.08333333  0.58333333  1
  W  W164  1  0.08333333  0.08333333  0.66666667  1
  V  V165  1  0.08333333  0.08333333  0.75000000  1
  V  V166  1  0.08333333  0.08333333  0.83333333  1
  V  V167  1  0.08333333  0.08333333  0.91666667  1
  V  V168  1  0.08333333  0.16666667  0.00000000  1
  V  V169  1  0.08333333  0.16666667  0.08333333  1
  V  V170  1  0.08333333  0.16666667  0.16666667  1
  W  W171  1  0.08333333  0.16666667  0.25000000  1
  V  V172  1  0.08333333  0.16666667  0.33333333  1
  V  V173  1  0.08333333  0.16666667  0.41666667  1
  V  V174  1  0.08333333  0.16666667  0.50000000  1
  V  V175  1  0.08333333  0.16666667  0.58333333  1
  W  W176  1  0.08333333  0.16666667  0.66666667  1
  V  V177  1  0.08333333  0.16666667  0.75000000  1
  W  W178  1  0.08333333  0.16666667  0.83333333  1
  V  V179  1  0.08333333  0.16666667  0.91666667  1
  V  V180  1  0.08333333  0.25000000  0.00000000  1
  W  W181  1  0.08333333  0.25000000  0.08333333  1
  V  V182  1  0.08333333  0.25000000  0.16666667  1
  V  V183  1  0.08333333  0.25000000  0.25000000  1
  V  V184  1  0.08333333  0.25000000  0.33333333  1
  V  V185  1  0.08333333  0.25000000  0.41666667  1
  V  V186  1  0.08333333  0.25000000  0.50000000  1
  V  V187  1  0.08333333  0.25000000  0.58333333  1
  V  V188  1  0.08333333  0.25000000  0.66666667  1
  V  V189  1  0.08333333  0.25000000  0.75000000  1
  V  V190  1  0.08333333  0.25000000  0.83333333  1
  W  W191  1  0.08333333  0.25000000  0.91666667  1
  W  W192  1  0.08333333  0.33333333  0.00000000  1
  V  V193  1  0.08333333  0.33333333  0.08333333  1
  V  V194  1  0.08333333  0.33333333  0.16666667  1
  V  V195  1  0.08333333  0.33333333  0.25000000  1
  Cr  Cr196  1  0.08333333  0.33333333  0.33333333  1
  Cr  Cr197  1  0.08333333  0.33333333  0.41666667  1
  Cr  Cr198  1  0.08333333  0.33333333  0.50000000  1
  V  V199  1  0.08333333  0.33333333  0.58333333  1
  W  W200  1  0.08333333  0.33333333  0.66666667  1
  V  V201  1  0.08333333  0.33333333  0.75000000  1
  V  V202  1  0.08333333  0.33333333  0.83333333  1
  W  W203  1  0.08333333  0.33333333  0.91666667  1
  V  V204  1  0.08333333  0.41666667  0.00000000  1
  V  V205  1  0.08333333  0.41666667  0.08333333  1
  V  V206  1  0.08333333  0.41666667  0.16666667  1
  V  V207  1  0.08333333  0.41666667  0.25000000  1
  Cr  Cr208  1  0.08333333  0.41666667  0.33333333  1
  Cr  Cr209  1  0.08333333  0.41666667  0.41666667  1
  Cr  Cr210  1  0.08333333  0.41666667  0.50000000  1
  Cr  Cr211  1  0.08333333  0.41666667  0.58333333  1
  Cr  Cr212  1  0.08333333  0.41666667  0.66666667  1
  V  V213  1  0.08333333  0.41666667  0.75000000  1
  V  V214  1  0.08333333  0.41666667  0.83333333  1
  W  W215  1  0.08333333  0.41666667  0.91666667  1
  V  V216  1  0.08333333  0.50000000  0.00000000  1
  V  V217  1  0.08333333  0.50000000  0.08333333  1
  W  W218  1  0.08333333  0.50000000  0.16666667  1
  W  W219  1  0.08333333  0.50000000  0.25000000  1
  V  V220  1  0.08333333  0.50000000  0.33333333  1
  Cr  Cr221  1  0.08333333  0.50000000  0.41666667  1
  Cr  Cr222  1  0.08333333  0.50000000  0.50000000  1
  Cr  Cr223  1  0.08333333  0.50000000  0.58333333  1
  Cr  Cr224  1  0.08333333  0.50000000  0.66666667  1
  Cr  Cr225  1  0.08333333  0.50000000  0.75000000  1
  V  V226  1  0.08333333  0.50000000  0.83333333  1
  V  V227  1  0.08333333  0.50000000  0.91666667  1
  V  V228  1  0.08333333  0.58333333  0.00000000  1
  V  V229  1  0.08333333  0.58333333  0.08333333  1
  Cr  Cr230  1  0.08333333  0.58333333  0.16666667  1
  V  V231  1  0.08333333  0.58333333  0.25000000  1
  V  V232  1  0.08333333  0.58333333  0.33333333  1
  Cr  Cr233  1  0.08333333  0.58333333  0.41666667  1
  Cr  Cr234  1  0.08333333  0.58333333  0.50000000  1
  Cr  Cr235  1  0.08333333  0.58333333  0.58333333  1
  Cr  Cr236  1  0.08333333  0.58333333  0.66666667  1
  Cr  Cr237  1  0.08333333  0.58333333  0.75000000  1
  V  V238  1  0.08333333  0.58333333  0.83333333  1
  V  V239  1  0.08333333  0.58333333  0.91666667  1
  V  V240  1  0.08333333  0.66666667  1.00000000  1
  V  V241  1  0.08333333  0.66666667  0.08333333  1
  V  V242  1  0.08333333  0.66666667  0.16666667  1
  V  V243  1  0.08333333  0.66666667  0.25000000  1
  V  V244  1  0.08333333  0.66666667  0.33333333  1
  V  V245  1  0.08333333  0.66666667  0.41666667  1
  Cr  Cr246  1  0.08333333  0.66666667  0.50000000  1
  Cr  Cr247  1  0.08333333  0.66666667  0.58333333  1
  Cr  Cr248  1  0.08333333  0.66666667  0.66666667  1
  Cr  Cr249  1  0.08333333  0.66666667  0.75000000  1
  Cr  Cr250  1  0.08333333  0.66666667  0.83333333  1
  V  V251  1  0.08333333  0.66666667  0.91666667  1
  V  V252  1  0.08333333  0.75000000  1.00000000  1
  V  V253  1  0.08333333  0.75000000  0.08333333  1
  W  W254  1  0.08333333  0.75000000  0.16666667  1
  V  V255  1  0.08333333  0.75000000  0.25000000  1
  V  V256  1  0.08333333  0.75000000  0.33333333  1
  V  V257  1  0.08333333  0.75000000  0.41666667  1
  Cr  Cr258  1  0.08333333  0.75000000  0.50000000  1
  Cr  Cr259  1  0.08333333  0.75000000  0.58333333  1
  Cr  Cr260  1  0.08333333  0.75000000  0.66666667  1
  Cr  Cr261  1  0.08333333  0.75000000  0.75000000  1
  V  V262  1  0.08333333  0.75000000  0.83333333  1
  V  V263  1  0.08333333  0.75000000  0.91666667  1
  W  W264  1  0.08333333  0.83333333  1.00000000  1
  V  V265  1  0.08333333  0.83333333  0.08333333  1
  V  V266  1  0.08333333  0.83333333  0.16666667  1
  V  V267  1  0.08333333  0.83333333  0.25000000  1
  V  V268  1  0.08333333  0.83333333  0.33333333  1
  V  V269  1  0.08333333  0.83333333  0.41666667  1
  V  V270  1  0.08333333  0.83333333  0.50000000  1
  Cr  Cr271  1  0.08333333  0.83333333  0.58333333  1
  Cr  Cr272  1  0.08333333  0.83333333  0.66666667  1
  V  V273  1  0.08333333  0.83333333  0.75000000  1
  Cr  Cr274  1  0.08333333  0.83333333  0.83333333  1
  W  W275  1  0.08333333  0.83333333  0.91666667  1
  V  V276  1  0.08333333  0.91666667  1.00000000  1
  V  V277  1  0.08333333  0.91666667  0.08333333  1
  V  V278  1  0.08333333  0.91666667  0.16666667  1
  V  V279  1  0.08333333  0.91666667  0.25000000  1
  V  V280  1  0.08333333  0.91666667  0.33333333  1
  W  W281  1  0.08333333  0.91666667  0.41666667  1
  V  V282  1  0.08333333  0.91666667  0.50000000  1
  V  V283  1  0.08333333  0.91666667  0.58333333  1
  V  V284  1  0.08333333  0.91666667  0.66666667  1
  Cr  Cr285  1  0.08333333  0.91666667  0.75000000  1
  V  V286  1  0.08333333  0.91666667  0.83333333  1
  V  V287  1  0.08333333  0.91666667  0.91666667  1
  V  V288  1  0.16666667  0.00000000  0.00000000  1
  V  V289  1  0.16666667  0.00000000  0.08333333  1
  V  V290  1  0.16666667  0.00000000  0.16666667  1
  W  W291  1  0.16666667  0.00000000  0.25000000  1
  V  V292  1  0.16666667  0.00000000  0.33333333  1
  V  V293  1  0.16666667  0.00000000  0.41666667  1
  V  V294  1  0.16666667  0.00000000  0.50000000  1
  V  V295  1  0.16666667  0.00000000  0.58333333  1
  V  V296  1  0.16666667  0.00000000  0.66666667  1
  V  V297  1  0.16666667  0.00000000  0.75000000  1
  V  V298  1  0.16666667  0.00000000  0.83333333  1
  V  V299  1  0.16666667  0.00000000  0.91666667  1
  V  V300  1  0.16666667  0.08333333  0.00000000  1
  V  V301  1  0.16666667  0.08333333  0.08333333  1
  V  V302  1  0.16666667  0.08333333  0.16666667  1
  V  V303  1  0.16666667  0.08333333  0.25000000  1
  V  V304  1  0.16666667  0.08333333  0.33333333  1
  V  V305  1  0.16666667  0.08333333  0.41666667  1
  V  V306  1  0.16666667  0.08333333  0.50000000  1
  W  W307  1  0.16666667  0.08333333  0.58333333  1
  V  V308  1  0.16666667  0.08333333  0.66666667  1
  V  V309  1  0.16666667  0.08333333  0.75000000  1
  V  V310  1  0.16666667  0.08333333  0.83333333  1
  W  W311  1  0.16666667  0.08333333  0.91666667  1
  V  V312  1  0.16666667  0.16666667  0.00000000  1
  V  V313  1  0.16666667  0.16666667  0.08333333  1
  W  W314  1  0.16666667  0.16666667  0.16666667  1
  V  V315  1  0.16666667  0.16666667  0.25000000  1
  V  V316  1  0.16666667  0.16666667  0.33333333  1
  W  W317  1  0.16666667  0.16666667  0.41666667  1
  W  W318  1  0.16666667  0.16666667  0.50000000  1
  V  V319  1  0.16666667  0.16666667  0.58333333  1
  V  V320  1  0.16666667  0.16666667  0.66666667  1
  W  W321  1  0.16666667  0.16666667  0.75000000  1
  V  V322  1  0.16666667  0.16666667  0.83333333  1
  V  V323  1  0.16666667  0.16666667  0.91666667  1
  V  V324  1  0.16666667  0.25000000  0.00000000  1
  V  V325  1  0.16666667  0.25000000  0.08333333  1
  V  V326  1  0.16666667  0.25000000  0.16666667  1
  V  V327  1  0.16666667  0.25000000  0.25000000  1
  V  V328  1  0.16666667  0.25000000  0.33333333  1
  V  V329  1  0.16666667  0.25000000  0.41666667  1
  V  V330  1  0.16666667  0.25000000  0.50000000  1
  W  W331  1  0.16666667  0.25000000  0.58333333  1
  V  V332  1  0.16666667  0.25000000  0.66666667  1
  W  W333  1  0.16666667  0.25000000  0.75000000  1
  V  V334  1  0.16666667  0.25000000  0.83333333  1
  V  V335  1  0.16666667  0.25000000  0.91666667  1
  V  V336  1  0.16666667  0.33333333  1.00000000  1
  V  V337  1  0.16666667  0.33333333  0.08333333  1
  W  W338  1  0.16666667  0.33333333  0.16666667  1
  V  V339  1  0.16666667  0.33333333  0.25000000  1
  V  V340  1  0.16666667  0.33333333  0.33333333  1
  Cr  Cr341  1  0.16666667  0.33333333  0.41666667  1
  V  V342  1  0.16666667  0.33333333  0.50000000  1
  V  V343  1  0.16666667  0.33333333  0.58333333  1
  V  V344  1  0.16666667  0.33333333  0.66666667  1
  W  W345  1  0.16666667  0.33333333  0.75000000  1
  V  V346  1  0.16666667  0.33333333  0.83333333  1
  V  V347  1  0.16666667  0.33333333  0.91666667  1
  V  V348  1  0.16666667  0.41666667  0.00000000  1
  V  V349  1  0.16666667  0.41666667  0.08333333  1
  V  V350  1  0.16666667  0.41666667  0.16666667  1
  W  W351  1  0.16666667  0.41666667  0.25000000  1
  V  V352  1  0.16666667  0.41666667  0.33333333  1
  V  V353  1  0.16666667  0.41666667  0.41666667  1
  Cr  Cr354  1  0.16666667  0.41666667  0.50000000  1
  V  V355  1  0.16666667  0.41666667  0.58333333  1
  V  V356  1  0.16666667  0.41666667  0.66666667  1
  V  V357  1  0.16666667  0.41666667  0.75000000  1
  V  V358  1  0.16666667  0.41666667  0.83333333  1
  W  W359  1  0.16666667  0.41666667  0.91666667  1
  W  W360  1  0.16666667  0.50000000  0.00000000  1
  V  V361  1  0.16666667  0.50000000  0.08333333  1
  V  V362  1  0.16666667  0.50000000  0.16666667  1
  W  W363  1  0.16666667  0.50000000  0.25000000  1
  V  V364  1  0.16666667  0.50000000  0.33333333  1
  V  V365  1  0.16666667  0.50000000  0.41666667  1
  Cr  Cr366  1  0.16666667  0.50000000  0.50000000  1
  Cr  Cr367  1  0.16666667  0.50000000  0.58333333  1
  Cr  Cr368  1  0.16666667  0.50000000  0.66666667  1
  W  W369  1  0.16666667  0.50000000  0.75000000  1
  V  V370  1  0.16666667  0.50000000  0.83333333  1
  W  W371  1  0.16666667  0.50000000  0.91666667  1
  V  V372  1  0.16666667  0.58333333  0.00000000  1
  V  V373  1  0.16666667  0.58333333  0.08333333  1
  V  V374  1  0.16666667  0.58333333  0.16666667  1
  V  V375  1  0.16666667  0.58333333  0.25000000  1
  V  V376  1  0.16666667  0.58333333  0.33333333  1
  V  V377  1  0.16666667  0.58333333  0.41666667  1
  Cr  Cr378  1  0.16666667  0.58333333  0.50000000  1
  Cr  Cr379  1  0.16666667  0.58333333  0.58333333  1
  Cr  Cr380  1  0.16666667  0.58333333  0.66666667  1
  Cr  Cr381  1  0.16666667  0.58333333  0.75000000  1
  V  V382  1  0.16666667  0.58333333  0.83333333  1
  V  V383  1  0.16666667  0.58333333  0.91666667  1
  V  V384  1  0.16666667  0.66666667  1.00000000  1
  V  V385  1  0.16666667  0.66666667  0.08333333  1
  W  W386  1  0.16666667  0.66666667  0.16666667  1
  V  V387  1  0.16666667  0.66666667  0.25000000  1
  W  W388  1  0.16666667  0.66666667  0.33333333  1
  Cr  Cr389  1  0.16666667  0.66666667  0.41666667  1
  W  W390  1  0.16666667  0.66666667  0.50000000  1
  Cr  Cr391  1  0.16666667  0.66666667  0.58333333  1
  Cr  Cr392  1  0.16666667  0.66666667  0.66666667  1
  Cr  Cr393  1  0.16666667  0.66666667  0.75000000  1
  V  V394  1  0.16666667  0.66666667  0.83333333  1
  V  V395  1  0.16666667  0.66666667  0.91666667  1
  V  V396  1  0.16666667  0.75000000  1.00000000  1
  V  V397  1  0.16666667  0.75000000  0.08333333  1
  V  V398  1  0.16666667  0.75000000  0.16666667  1
  V  V399  1  0.16666667  0.75000000  0.25000000  1
  V  V400  1  0.16666667  0.75000000  0.33333333  1
  V  V401  1  0.16666667  0.75000000  0.41666667  1
  V  V402  1  0.16666667  0.75000000  0.50000000  1
  V  V403  1  0.16666667  0.75000000  0.58333333  1
  Cr  Cr404  1  0.16666667  0.75000000  0.66666667  1
  Cr  Cr405  1  0.16666667  0.75000000  0.75000000  1
  Cr  Cr406  1  0.16666667  0.75000000  0.83333333  1
  V  V407  1  0.16666667  0.75000000  0.91666667  1
  V  V408  1  0.16666667  0.83333333  0.00000000  1
  V  V409  1  0.16666667  0.83333333  0.08333333  1
  V  V410  1  0.16666667  0.83333333  0.16666667  1
  V  V411  1  0.16666667  0.83333333  0.25000000  1
  Cr  Cr412  1  0.16666667  0.83333333  0.33333333  1
  V  V413  1  0.16666667  0.83333333  0.41666667  1
  V  V414  1  0.16666667  0.83333333  0.50000000  1
  V  V415  1  0.16666667  0.83333333  0.58333333  1
  Cr  Cr416  1  0.16666667  0.83333333  0.66666667  1
  V  V417  1  0.16666667  0.83333333  0.75000000  1
  V  V418  1  0.16666667  0.83333333  0.83333333  1
  V  V419  1  0.16666667  0.83333333  0.91666667  1
  V  V420  1  0.16666667  0.91666667  1.00000000  1
  V  V421  1  0.16666667  0.91666667  0.08333333  1
  V  V422  1  0.16666667  0.91666667  0.16666667  1
  V  V423  1  0.16666667  0.91666667  0.25000000  1
  V  V424  1  0.16666667  0.91666667  0.33333333  1
  V  V425  1  0.16666667  0.91666667  0.41666667  1
  V  V426  1  0.16666667  0.91666667  0.50000000  1
  V  V427  1  0.16666667  0.91666667  0.58333333  1
  V  V428  1  0.16666667  0.91666667  0.66666667  1
  V  V429  1  0.16666667  0.91666667  0.75000000  1
  V  V430  1  0.16666667  0.91666667  0.83333333  1
  V  V431  1  0.16666667  0.91666667  0.91666667  1
  W  W432  1  0.25000000  0.00000000  0.00000000  1
  V  V433  1  0.25000000  0.00000000  0.08333333  1
  V  V434  1  0.25000000  0.00000000  0.16666667  1
  W  W435  1  0.25000000  0.00000000  0.25000000  1
  V  V436  1  0.25000000  0.00000000  0.33333333  1
  V  V437  1  0.25000000  0.00000000  0.41666667  1
  V  V438  1  0.25000000  0.00000000  0.50000000  1
  V  V439  1  0.25000000  0.00000000  0.58333333  1
  V  V440  1  0.25000000  0.00000000  0.66666667  1
  V  V441  1  0.25000000  0.00000000  0.75000000  1
  V  V442  1  0.25000000  0.00000000  0.83333333  1
  V  V443  1  0.25000000  0.00000000  0.91666667  1
  V  V444  1  0.25000000  0.08333333  0.00000000  1
  V  V445  1  0.25000000  0.08333333  0.08333333  1
  V  V446  1  0.25000000  0.08333333  0.16666667  1
  V  V447  1  0.25000000  0.08333333  0.25000000  1
  V  V448  1  0.25000000  0.08333333  0.33333333  1
  V  V449  1  0.25000000  0.08333333  0.41666667  1
  W  W450  1  0.25000000  0.08333333  0.50000000  1
  V  V451  1  0.25000000  0.08333333  0.58333333  1
  W  W452  1  0.25000000  0.08333333  0.66666667  1
  W  W453  1  0.25000000  0.08333333  0.75000000  1
  W  W454  1  0.25000000  0.08333333  0.83333333  1
  W  W455  1  0.25000000  0.08333333  0.91666667  1
  V  V456  1  0.25000000  0.16666667  0.00000000  1
  V  V457  1  0.25000000  0.16666667  0.08333333  1
  W  W458  1  0.25000000  0.16666667  0.16666667  1
  V  V459  1  0.25000000  0.16666667  0.25000000  1
  V  V460  1  0.25000000  0.16666667  0.33333333  1
  V  V461  1  0.25000000  0.16666667  0.41666667  1
  V  V462  1  0.25000000  0.16666667  0.50000000  1
  V  V463  1  0.25000000  0.16666667  0.58333333  1
  V  V464  1  0.25000000  0.16666667  0.66666667  1
  V  V465  1  0.25000000  0.16666667  0.75000000  1
  V  V466  1  0.25000000  0.16666667  0.83333333  1
  V  V467  1  0.25000000  0.16666667  0.91666667  1
  W  W468  1  0.25000000  0.25000000  0.00000000  1
  V  V469  1  0.25000000  0.25000000  0.08333333  1
  V  V470  1  0.25000000  0.25000000  0.16666667  1
  W  W471  1  0.25000000  0.25000000  0.25000000  1
  V  V472  1  0.25000000  0.25000000  0.33333333  1
  V  V473  1  0.25000000  0.25000000  0.41666667  1
  W  W474  1  0.25000000  0.25000000  0.50000000  1
  V  V475  1  0.25000000  0.25000000  0.58333333  1
  V  V476  1  0.25000000  0.25000000  0.66666667  1
  V  V477  1  0.25000000  0.25000000  0.75000000  1
  W  W478  1  0.25000000  0.25000000  0.83333333  1
  W  W479  1  0.25000000  0.25000000  0.91666667  1
  V  V480  1  0.25000000  0.33333333  0.00000000  1
  V  V481  1  0.25000000  0.33333333  0.08333333  1
  V  V482  1  0.25000000  0.33333333  0.16666667  1
  V  V483  1  0.25000000  0.33333333  0.25000000  1
  W  W484  1  0.25000000  0.33333333  0.33333333  1
  V  V485  1  0.25000000  0.33333333  0.41666667  1
  V  V486  1  0.25000000  0.33333333  0.50000000  1
  V  V487  1  0.25000000  0.33333333  0.58333333  1
  V  V488  1  0.25000000  0.33333333  0.66666667  1
  V  V489  1  0.25000000  0.33333333  0.75000000  1
  W  W490  1  0.25000000  0.33333333  0.83333333  1
  V  V491  1  0.25000000  0.33333333  0.91666667  1
  V  V492  1  0.25000000  0.41666667  0.00000000  1
  V  V493  1  0.25000000  0.41666667  0.08333333  1
  V  V494  1  0.25000000  0.41666667  0.16666667  1
  V  V495  1  0.25000000  0.41666667  0.25000000  1
  V  V496  1  0.25000000  0.41666667  0.33333333  1
  V  V497  1  0.25000000  0.41666667  0.41666667  1
  V  V498  1  0.25000000  0.41666667  0.50000000  1
  V  V499  1  0.25000000  0.41666667  0.58333333  1
  V  V500  1  0.25000000  0.41666667  0.66666667  1
  V  V501  1  0.25000000  0.41666667  0.75000000  1
  V  V502  1  0.25000000  0.41666667  0.83333333  1
  W  W503  1  0.25000000  0.41666667  0.91666667  1
  V  V504  1  0.25000000  0.50000000  0.00000000  1
  V  V505  1  0.25000000  0.50000000  0.08333333  1
  V  V506  1  0.25000000  0.50000000  0.16666667  1
  V  V507  1  0.25000000  0.50000000  0.25000000  1
  V  V508  1  0.25000000  0.50000000  0.33333333  1
  V  V509  1  0.25000000  0.50000000  0.41666667  1
  V  V510  1  0.25000000  0.50000000  0.50000000  1
  V  V511  1  0.25000000  0.50000000  0.58333333  1
  V  V512  1  0.25000000  0.50000000  0.66666667  1
  V  V513  1  0.25000000  0.50000000  0.75000000  1
  V  V514  1  0.25000000  0.50000000  0.83333333  1
  W  W515  1  0.25000000  0.50000000  0.91666667  1
  V  V516  1  0.25000000  0.58333333  1.00000000  1
  V  V517  1  0.25000000  0.58333333  0.08333333  1
  W  W518  1  0.25000000  0.58333333  0.16666667  1
  V  V519  1  0.25000000  0.58333333  0.25000000  1
  V  V520  1  0.25000000  0.58333333  0.33333333  1
  V  V521  1  0.25000000  0.58333333  0.41666667  1
  Cr  Cr522  1  0.25000000  0.58333333  0.50000000  1
  V  V523  1  0.25000000  0.58333333  0.58333333  1
  V  V524  1  0.25000000  0.58333333  0.66666667  1
  V  V525  1  0.25000000  0.58333333  0.75000000  1
  V  V526  1  0.25000000  0.58333333  0.83333333  1
  V  V527  1  0.25000000  0.58333333  0.91666667  1
  V  V528  1  0.25000000  0.66666667  1.00000000  1
  V  V529  1  0.25000000  0.66666667  0.08333333  1
  V  V530  1  0.25000000  0.66666667  0.16666667  1
  V  V531  1  0.25000000  0.66666667  0.25000000  1
  V  V532  1  0.25000000  0.66666667  0.33333333  1
  V  V533  1  0.25000000  0.66666667  0.41666667  1
  V  V534  1  0.25000000  0.66666667  0.50000000  1
  V  V535  1  0.25000000  0.66666667  0.58333333  1
  V  V536  1  0.25000000  0.66666667  0.66666667  1
  W  W537  1  0.25000000  0.66666667  0.75000000  1
  V  V538  1  0.25000000  0.66666667  0.83333333  1
  V  V539  1  0.25000000  0.66666667  0.91666667  1
  V  V540  1  0.25000000  0.75000000  1.00000000  1
  V  V541  1  0.25000000  0.75000000  0.08333333  1
  V  V542  1  0.25000000  0.75000000  0.16666667  1
  W  W543  1  0.25000000  0.75000000  0.25000000  1
  V  V544  1  0.25000000  0.75000000  0.33333333  1
  V  V545  1  0.25000000  0.75000000  0.41666667  1
  W  W546  1  0.25000000  0.75000000  0.50000000  1
  V  V547  1  0.25000000  0.75000000  0.58333333  1
  W  W548  1  0.25000000  0.75000000  0.66666667  1
  V  V549  1  0.25000000  0.75000000  0.75000000  1
  V  V550  1  0.25000000  0.75000000  0.83333333  1
  V  V551  1  0.25000000  0.75000000  0.91666667  1
  V  V552  1  0.25000000  0.83333333  0.00000000  1
  W  W553  1  0.25000000  0.83333333  0.08333333  1
  W  W554  1  0.25000000  0.83333333  0.16666667  1
  V  V555  1  0.25000000  0.83333333  0.25000000  1
  V  V556  1  0.25000000  0.83333333  0.33333333  1
  V  V557  1  0.25000000  0.83333333  0.41666667  1
  V  V558  1  0.25000000  0.83333333  0.50000000  1
  W  W559  1  0.25000000  0.83333333  0.58333333  1
  V  V560  1  0.25000000  0.83333333  0.66666667  1
  V  V561  1  0.25000000  0.83333333  0.75000000  1
  V  V562  1  0.25000000  0.83333333  0.83333333  1
  W  W563  1  0.25000000  0.83333333  0.91666667  1
  V  V564  1  0.25000000  0.91666667  1.00000000  1
  V  V565  1  0.25000000  0.91666667  0.08333333  1
  V  V566  1  0.25000000  0.91666667  0.16666667  1
  V  V567  1  0.25000000  0.91666667  0.25000000  1
  V  V568  1  0.25000000  0.91666667  0.33333333  1
  V  V569  1  0.25000000  0.91666667  0.41666667  1
  V  V570  1  0.25000000  0.91666667  0.50000000  1
  V  V571  1  0.25000000  0.91666667  0.58333333  1
  V  V572  1  0.25000000  0.91666667  0.66666667  1
  V  V573  1  0.25000000  0.91666667  0.75000000  1
  V  V574  1  0.25000000  0.91666667  0.83333333  1
  V  V575  1  0.25000000  0.91666667  0.91666667  1
  V  V576  1  0.33333333  0.00000000  0.00000000  1
  V  V577  1  0.33333333  0.00000000  0.08333333  1
  V  V578  1  0.33333333  0.00000000  0.16666667  1
  V  V579  1  0.33333333  0.00000000  0.25000000  1
  V  V580  1  0.33333333  0.00000000  0.33333333  1
  V  V581  1  0.33333333  0.00000000  0.41666667  1
  V  V582  1  0.33333333  0.00000000  0.50000000  1
  Ti  Ti583  1  0.33333333  0.00000000  0.58333333  1
  Ti  Ti584  1  0.33333333  0.00000000  0.66666667  1
  V  V585  1  0.33333333  0.00000000  0.75000000  1
  V  V586  1  0.33333333  0.00000000  0.83333333  1
  V  V587  1  0.33333333  0.00000000  0.91666667  1
  V  V588  1  0.33333333  0.08333333  0.00000000  1
  V  V589  1  0.33333333  0.08333333  0.08333333  1
  V  V590  1  0.33333333  0.08333333  0.16666667  1
  V  V591  1  0.33333333  0.08333333  0.25000000  1
  V  V592  1  0.33333333  0.08333333  0.33333333  1
  W  W593  1  0.33333333  0.08333333  0.41666667  1
  V  V594  1  0.33333333  0.08333333  0.50000000  1
  Ti  Ti595  1  0.33333333  0.08333333  0.58333333  1
  Ti  Ti596  1  0.33333333  0.08333333  0.66666667  1
  V  V597  1  0.33333333  0.08333333  0.75000000  1
  V  V598  1  0.33333333  0.08333333  0.83333333  1
  V  V599  1  0.33333333  0.08333333  0.91666667  1
  V  V600  1  0.33333333  0.16666667  0.00000000  1
  V  V601  1  0.33333333  0.16666667  0.08333333  1
  V  V602  1  0.33333333  0.16666667  0.16666667  1
  W  W603  1  0.33333333  0.16666667  0.25000000  1
  V  V604  1  0.33333333  0.16666667  0.33333333  1
  V  V605  1  0.33333333  0.16666667  0.41666667  1
  V  V606  1  0.33333333  0.16666667  0.50000000  1
  Ti  Ti607  1  0.33333333  0.16666667  0.58333333  1
  V  V608  1  0.33333333  0.16666667  0.66666667  1
  Ti  Ti609  1  0.33333333  0.16666667  0.75000000  1
  V  V610  1  0.33333333  0.16666667  0.83333333  1
  V  V611  1  0.33333333  0.16666667  0.91666667  1
  W  W612  1  0.33333333  0.25000000  0.00000000  1
  V  V613  1  0.33333333  0.25000000  0.08333333  1
  W  W614  1  0.33333333  0.25000000  0.16666667  1
  V  V615  1  0.33333333  0.25000000  0.25000000  1
  V  V616  1  0.33333333  0.25000000  0.33333333  1
  V  V617  1  0.33333333  0.25000000  0.41666667  1
  W  W618  1  0.33333333  0.25000000  0.50000000  1
  V  V619  1  0.33333333  0.25000000  0.58333333  1
  V  V620  1  0.33333333  0.25000000  0.66666667  1
  V  V621  1  0.33333333  0.25000000  0.75000000  1
  W  W622  1  0.33333333  0.25000000  0.83333333  1
  V  V623  1  0.33333333  0.25000000  0.91666667  1
  V  V624  1  0.33333333  0.33333333  0.00000000  1
  V  V625  1  0.33333333  0.33333333  0.08333333  1
  V  V626  1  0.33333333  0.33333333  0.16666667  1
  V  V627  1  0.33333333  0.33333333  0.25000000  1
  W  W628  1  0.33333333  0.33333333  0.33333333  1
  V  V629  1  0.33333333  0.33333333  0.41666667  1
  V  V630  1  0.33333333  0.33333333  0.50000000  1
  V  V631  1  0.33333333  0.33333333  0.58333333  1
  V  V632  1  0.33333333  0.33333333  0.66666667  1
  V  V633  1  0.33333333  0.33333333  0.75000000  1
  V  V634  1  0.33333333  0.33333333  0.83333333  1
  V  V635  1  0.33333333  0.33333333  0.91666667  1
  V  V636  1  0.33333333  0.41666667  0.00000000  1
  V  V637  1  0.33333333  0.41666667  0.08333333  1
  V  V638  1  0.33333333  0.41666667  0.16666667  1
  V  V639  1  0.33333333  0.41666667  0.25000000  1
  V  V640  1  0.33333333  0.41666667  0.33333333  1
  V  V641  1  0.33333333  0.41666667  0.41666667  1
  V  V642  1  0.33333333  0.41666667  0.50000000  1
  V  V643  1  0.33333333  0.41666667  0.58333333  1
  V  V644  1  0.33333333  0.41666667  0.66666667  1
  V  V645  1  0.33333333  0.41666667  0.75000000  1
  V  V646  1  0.33333333  0.41666667  0.83333333  1
  V  V647  1  0.33333333  0.41666667  0.91666667  1
  V  V648  1  0.33333333  0.50000000  0.00000000  1
  V  V649  1  0.33333333  0.50000000  0.08333333  1
  V  V650  1  0.33333333  0.50000000  0.16666667  1
  V  V651  1  0.33333333  0.50000000  0.25000000  1
  W  W652  1  0.33333333  0.50000000  0.33333333  1
  V  V653  1  0.33333333  0.50000000  0.41666667  1
  V  V654  1  0.33333333  0.50000000  0.50000000  1
  V  V655  1  0.33333333  0.50000000  0.58333333  1
  V  V656  1  0.33333333  0.50000000  0.66666667  1
  V  V657  1  0.33333333  0.50000000  0.75000000  1
  V  V658  1  0.33333333  0.50000000  0.83333333  1
  V  V659  1  0.33333333  0.50000000  0.91666667  1
  V  V660  1  0.33333333  0.58333333  0.00000000  1
  V  V661  1  0.33333333  0.58333333  0.08333333  1
  V  V662  1  0.33333333  0.58333333  0.16666667  1
  V  V663  1  0.33333333  0.58333333  0.25000000  1
  V  V664  1  0.33333333  0.58333333  0.33333333  1
  V  V665  1  0.33333333  0.58333333  0.41666667  1
  V  V666  1  0.33333333  0.58333333  0.50000000  1
  V  V667  1  0.33333333  0.58333333  0.58333333  1
  V  V668  1  0.33333333  0.58333333  0.66666667  1
  W  W669  1  0.33333333  0.58333333  0.75000000  1
  W  W670  1  0.33333333  0.58333333  0.83333333  1
  V  V671  1  0.33333333  0.58333333  0.91666667  1
  V  V672  1  0.33333333  0.66666667  1.00000000  1
  V  V673  1  0.33333333  0.66666667  0.08333333  1
  V  V674  1  0.33333333  0.66666667  0.16666667  1
  V  V675  1  0.33333333  0.66666667  0.25000000  1
  V  V676  1  0.33333333  0.66666667  0.33333333  1
  V  V677  1  0.33333333  0.66666667  0.41666667  1
  V  V678  1  0.33333333  0.66666667  0.50000000  1
  V  V679  1  0.33333333  0.66666667  0.58333333  1
  V  V680  1  0.33333333  0.66666667  0.66666667  1
  V  V681  1  0.33333333  0.66666667  0.75000000  1
  V  V682  1  0.33333333  0.66666667  0.83333333  1
  W  W683  1  0.33333333  0.66666667  0.91666667  1
  V  V684  1  0.33333333  0.75000000  1.00000000  1
  V  V685  1  0.33333333  0.75000000  0.08333333  1
  V  V686  1  0.33333333  0.75000000  0.16666667  1
  V  V687  1  0.33333333  0.75000000  0.25000000  1
  V  V688  1  0.33333333  0.75000000  0.33333333  1
  V  V689  1  0.33333333  0.75000000  0.41666667  1
  V  V690  1  0.33333333  0.75000000  0.50000000  1
  V  V691  1  0.33333333  0.75000000  0.58333333  1
  W  W692  1  0.33333333  0.75000000  0.66666667  1
  V  V693  1  0.33333333  0.75000000  0.75000000  1
  V  V694  1  0.33333333  0.75000000  0.83333333  1
  V  V695  1  0.33333333  0.75000000  0.91666667  1
  W  W696  1  0.33333333  0.83333333  0.00000000  1
  V  V697  1  0.33333333  0.83333333  0.08333333  1
  V  V698  1  0.33333333  0.83333333  0.16666667  1
  V  V699  1  0.33333333  0.83333333  0.25000000  1
  V  V700  1  0.33333333  0.83333333  0.33333333  1
  V  V701  1  0.33333333  0.83333333  0.41666667  1
  V  V702  1  0.33333333  0.83333333  0.50000000  1
  V  V703  1  0.33333333  0.83333333  0.58333333  1
  Ti  Ti704  1  0.33333333  0.83333333  0.66666667  1
  V  V705  1  0.33333333  0.83333333  0.75000000  1
  V  V706  1  0.33333333  0.83333333  0.83333333  1
  V  V707  1  0.33333333  0.83333333  0.91666667  1
  W  W708  1  0.33333333  0.91666667  0.00000000  1
  V  V709  1  0.33333333  0.91666667  0.08333333  1
  W  W710  1  0.33333333  0.91666667  0.16666667  1
  V  V711  1  0.33333333  0.91666667  0.25000000  1
  V  V712  1  0.33333333  0.91666667  0.33333333  1
  V  V713  1  0.33333333  0.91666667  0.41666667  1
  V  V714  1  0.33333333  0.91666667  0.50000000  1
  Ti  Ti715  1  0.33333333  0.91666667  0.58333333  1
  Ti  Ti716  1  0.33333333  0.91666667  0.66666667  1
  V  V717  1  0.33333333  0.91666667  0.75000000  1
  V  V718  1  0.33333333  0.91666667  0.83333333  1
  V  V719  1  0.33333333  0.91666667  0.91666667  1
  V  V720  1  0.41666667  0.00000000  0.00000000  1
  V  V721  1  0.41666667  0.00000000  0.08333333  1
  V  V722  1  0.41666667  0.00000000  0.16666667  1
  V  V723  1  0.41666667  0.00000000  0.25000000  1
  V  V724  1  0.41666667  0.00000000  0.33333333  1
  W  W725  1  0.41666667  0.00000000  0.41666667  1
  V  V726  1  0.41666667  0.00000000  0.50000000  1
  Zr  Zr727  1  0.41666667  0.00000000  0.58333333  1
  Zr  Zr728  1  0.41666667  0.00000000  0.66666667  1
  Zr  Zr729  1  0.41666667  0.00000000  0.75000000  1
  Ti  Ti730  1  0.41666667  0.00000000  0.83333333  1
  V  V731  1  0.41666667  0.00000000  0.91666667  1
  V  V732  1  0.41666667  0.08333333  0.00000000  1
  W  W733  1  0.41666667  0.08333333  0.08333333  1
  V  V734  1  0.41666667  0.08333333  0.16666667  1
  V  V735  1  0.41666667  0.08333333  0.25000000  1
  V  V736  1  0.41666667  0.08333333  0.33333333  1
  V  V737  1  0.41666667  0.08333333  0.41666667  1
  Ti  Ti738  1  0.41666667  0.08333333  0.50000000  1
  Zr  Zr739  1  0.41666667  0.08333333  0.58333333  1
  Zr  Zr740  1  0.41666667  0.08333333  0.66666667  1
  Zr  Zr741  1  0.41666667  0.08333333  0.75000000  1
  V  V742  1  0.41666667  0.08333333  0.83333333  1
  V  V743  1  0.41666667  0.08333333  0.91666667  1
  V  V744  1  0.41666667  0.16666667  0.00000000  1
  V  V745  1  0.41666667  0.16666667  0.08333333  1
  V  V746  1  0.41666667  0.16666667  0.16666667  1
  V  V747  1  0.41666667  0.16666667  0.25000000  1
  V  V748  1  0.41666667  0.16666667  0.33333333  1
  V  V749  1  0.41666667  0.16666667  0.41666667  1
  V  V750  1  0.41666667  0.16666667  0.50000000  1
  Ti  Ti751  1  0.41666667  0.16666667  0.58333333  1
  Zr  Zr752  1  0.41666667  0.16666667  0.66666667  1
  Zr  Zr753  1  0.41666667  0.16666667  0.75000000  1
  Ti  Ti754  1  0.41666667  0.16666667  0.83333333  1
  V  V755  1  0.41666667  0.16666667  0.91666667  1
  V  V756  1  0.41666667  0.25000000  0.00000000  1
  V  V757  1  0.41666667  0.25000000  0.08333333  1
  V  V758  1  0.41666667  0.25000000  0.16666667  1
  V  V759  1  0.41666667  0.25000000  0.25000000  1
  V  V760  1  0.41666667  0.25000000  0.33333333  1
  V  V761  1  0.41666667  0.25000000  0.41666667  1
  W  W762  1  0.41666667  0.25000000  0.50000000  1
  Ti  Ti763  1  0.41666667  0.25000000  0.58333333  1
  Ti  Ti764  1  0.41666667  0.25000000  0.66666667  1
  Ti  Ti765  1  0.41666667  0.25000000  0.75000000  1
  V  V766  1  0.41666667  0.25000000  0.83333333  1
  V  V767  1  0.41666667  0.25000000  0.91666667  1
  V  V768  1  0.41666667  0.33333333  0.00000000  1
  W  W769  1  0.41666667  0.33333333  0.08333333  1
  V  V770  1  0.41666667  0.33333333  0.16666667  1
  W  W771  1  0.41666667  0.33333333  0.25000000  1
  V  V772  1  0.41666667  0.33333333  0.33333333  1
  W  W773  1  0.41666667  0.33333333  0.41666667  1
  V  V774  1  0.41666667  0.33333333  0.50000000  1
  V  V775  1  0.41666667  0.33333333  0.58333333  1
  Ti  Ti776  1  0.41666667  0.33333333  0.66666667  1
  Ti  Ti777  1  0.41666667  0.33333333  0.75000000  1
  Ti  Ti778  1  0.41666667  0.33333333  0.83333333  1
  V  V779  1  0.41666667  0.33333333  0.91666667  1
  V  V780  1  0.41666667  0.41666667  1.00000000  1
  W  W781  1  0.41666667  0.41666667  0.08333333  1
  V  V782  1  0.41666667  0.41666667  0.16666667  1
  V  V783  1  0.41666667  0.41666667  0.25000000  1
  V  V784  1  0.41666667  0.41666667  0.33333333  1
  V  V785  1  0.41666667  0.41666667  0.41666667  1
  V  V786  1  0.41666667  0.41666667  0.50000000  1
  V  V787  1  0.41666667  0.41666667  0.58333333  1
  Ti  Ti788  1  0.41666667  0.41666667  0.66666667  1
  Ti  Ti789  1  0.41666667  0.41666667  0.75000000  1
  V  V790  1  0.41666667  0.41666667  0.83333333  1
  V  V791  1  0.41666667  0.41666667  0.91666667  1
  V  V792  1  0.41666667  0.50000000  1.00000000  1
  V  V793  1  0.41666667  0.50000000  0.08333333  1
  V  V794  1  0.41666667  0.50000000  0.16666667  1
  V  V795  1  0.41666667  0.50000000  0.25000000  1
  V  V796  1  0.41666667  0.50000000  0.33333333  1
  V  V797  1  0.41666667  0.50000000  0.41666667  1
  V  V798  1  0.41666667  0.50000000  0.50000000  1
  Ti  Ti799  1  0.41666667  0.50000000  0.58333333  1
  Ti  Ti800  1  0.41666667  0.50000000  0.66666667  1
  V  V801  1  0.41666667  0.50000000  0.75000000  1
  V  V802  1  0.41666667  0.50000000  0.83333333  1
  W  W803  1  0.41666667  0.50000000  0.91666667  1
  V  V804  1  0.41666667  0.58333333  0.00000000  1
  V  V805  1  0.41666667  0.58333333  0.08333333  1
  V  V806  1  0.41666667  0.58333333  0.16666667  1
  V  V807  1  0.41666667  0.58333333  0.25000000  1
  W  W808  1  0.41666667  0.58333333  0.33333333  1
  V  V809  1  0.41666667  0.58333333  0.41666667  1
  V  V810  1  0.41666667  0.58333333  0.50000000  1
  V  V811  1  0.41666667  0.58333333  0.58333333  1
  Ti  Ti812  1  0.41666667  0.58333333  0.66666667  1
  V  V813  1  0.41666667  0.58333333  0.75000000  1
  V  V814  1  0.41666667  0.58333333  0.83333333  1
  V  V815  1  0.41666667  0.58333333  0.91666667  1
  W  W816  1  0.41666667  0.66666667  1.00000000  1
  V  V817  1  0.41666667  0.66666667  0.08333333  1
  V  V818  1  0.41666667  0.66666667  0.16666667  1
  V  V819  1  0.41666667  0.66666667  0.25000000  1
  V  V820  1  0.41666667  0.66666667  0.33333333  1
  W  W821  1  0.41666667  0.66666667  0.41666667  1
  V  V822  1  0.41666667  0.66666667  0.50000000  1
  Ti  Ti823  1  0.41666667  0.66666667  0.58333333  1
  Ti  Ti824  1  0.41666667  0.66666667  0.66666667  1
  Ti  Ti825  1  0.41666667  0.66666667  0.75000000  1
  V  V826  1  0.41666667  0.66666667  0.83333333  1
  V  V827  1  0.41666667  0.66666667  0.91666667  1
  V  V828  1  0.41666667  0.75000000  1.00000000  1
  V  V829  1  0.41666667  0.75000000  0.08333333  1
  V  V830  1  0.41666667  0.75000000  0.16666667  1
  W  W831  1  0.41666667  0.75000000  0.25000000  1
  V  V832  1  0.41666667  0.75000000  0.33333333  1
  V  V833  1  0.41666667  0.75000000  0.41666667  1
  V  V834  1  0.41666667  0.75000000  0.50000000  1
  Ti  Ti835  1  0.41666667  0.75000000  0.58333333  1
  Zr  Zr836  1  0.41666667  0.75000000  0.66666667  1
  Zr  Zr837  1  0.41666667  0.75000000  0.75000000  1
  Ti  Ti838  1  0.41666667  0.75000000  0.83333333  1
  W  W839  1  0.41666667  0.75000000  0.91666667  1
  W  W840  1  0.41666667  0.83333333  0.00000000  1
  V  V841  1  0.41666667  0.83333333  0.08333333  1
  V  V842  1  0.41666667  0.83333333  0.16666667  1
  V  V843  1  0.41666667  0.83333333  0.25000000  1
  V  V844  1  0.41666667  0.83333333  0.33333333  1
  V  V845  1  0.41666667  0.83333333  0.41666667  1
  V  V846  1  0.41666667  0.83333333  0.50000000  1
  Zr  Zr847  1  0.41666667  0.83333333  0.58333333  1
  Zr  Zr848  1  0.41666667  0.83333333  0.66666667  1
  Zr  Zr849  1  0.41666667  0.83333333  0.75000000  1
  Ti  Ti850  1  0.41666667  0.83333333  0.83333333  1
  V  V851  1  0.41666667  0.83333333  0.91666667  1
  V  V852  1  0.41666667  0.91666667  0.00000000  1
  V  V853  1  0.41666667  0.91666667  0.08333333  1
  W  W854  1  0.41666667  0.91666667  0.16666667  1
  V  V855  1  0.41666667  0.91666667  0.25000000  1
  V  V856  1  0.41666667  0.91666667  0.33333333  1
  V  V857  1  0.41666667  0.91666667  0.41666667  1
  Ti  Ti858  1  0.41666667  0.91666667  0.50000000  1
  Zr  Zr859  1  0.41666667  0.91666667  0.58333333  1
  Zr  Zr860  1  0.41666667  0.91666667  0.66666667  1
  Zr  Zr861  1  0.41666667  0.91666667  0.75000000  1
  W  W862  1  0.41666667  0.91666667  0.83333333  1
  V  V863  1  0.41666667  0.91666667  0.91666667  1
  V  V864  1  0.50000000  0.00000000  0.00000000  1
  V  V865  1  0.50000000  0.00000000  0.08333333  1
  V  V866  1  0.50000000  0.00000000  0.16666667  1
  W  W867  1  0.50000000  0.00000000  0.25000000  1
  V  V868  1  0.50000000  0.00000000  0.33333333  1
  V  V869  1  0.50000000  0.00000000  0.41666667  1
  Ti  Ti870  1  0.50000000  0.00000000  0.50000000  1
  Zr  Zr871  1  0.50000000  0.00000000  0.58333333  1
  Zr  Zr872  1  0.50000000  0.00000000  0.66666667  1
  Zr  Zr873  1  0.50000000  0.00000000  0.75000000  1
  Zr  Zr874  1  0.50000000  0.00000000  0.83333333  1
  Ti  Ti875  1  0.50000000  0.00000000  0.91666667  1
  W  W876  1  0.50000000  0.08333333  0.00000000  1
  V  V877  1  0.50000000  0.08333333  0.08333333  1
  V  V878  1  0.50000000  0.08333333  0.16666667  1
  V  V879  1  0.50000000  0.08333333  0.25000000  1
  V  V880  1  0.50000000  0.08333333  0.33333333  1
  V  V881  1  0.50000000  0.08333333  0.41666667  1
  V  V882  1  0.50000000  0.08333333  0.50000000  1
  Zr  Zr883  1  0.50000000  0.08333333  0.58333333  1
  Zr  Zr884  1  0.50000000  0.08333333  0.66666667  1
  Zr  Zr885  1  0.50000000  0.08333333  0.75000000  1
  Zr  Zr886  1  0.50000000  0.08333333  0.83333333  1
  Ti  Ti887  1  0.50000000  0.08333333  0.91666667  1
  V  V888  1  0.50000000  0.16666667  0.00000000  1
  V  V889  1  0.50000000  0.16666667  0.08333333  1
  W  W890  1  0.50000000  0.16666667  0.16666667  1
  V  V891  1  0.50000000  0.16666667  0.25000000  1
  V  V892  1  0.50000000  0.16666667  0.33333333  1
  V  V893  1  0.50000000  0.16666667  0.41666667  1
  W  W894  1  0.50000000  0.16666667  0.50000000  1
  Zr  Zr895  1  0.50000000  0.16666667  0.58333333  1
  Zr  Zr896  1  0.50000000  0.16666667  0.66666667  1
  Zr  Zr897  1  0.50000000  0.16666667  0.75000000  1
  Zr  Zr898  1  0.50000000  0.16666667  0.83333333  1
  Ti  Ti899  1  0.50000000  0.16666667  0.91666667  1
  V  V900  1  0.50000000  0.25000000  0.00000000  1
  V  V901  1  0.50000000  0.25000000  0.08333333  1
  W  W902  1  0.50000000  0.25000000  0.16666667  1
  W  W903  1  0.50000000  0.25000000  0.25000000  1
  V  V904  1  0.50000000  0.25000000  0.33333333  1
  V  V905  1  0.50000000  0.25000000  0.41666667  1
  V  V906  1  0.50000000  0.25000000  0.50000000  1
  Ti  Ti907  1  0.50000000  0.25000000  0.58333333  1
  Zr  Zr908  1  0.50000000  0.25000000  0.66666667  1
  Zr  Zr909  1  0.50000000  0.25000000  0.75000000  1
  Zr  Zr910  1  0.50000000  0.25000000  0.83333333  1
  Ti  Ti911  1  0.50000000  0.25000000  0.91666667  1
  V  V912  1  0.50000000  0.33333333  1.00000000  1
  V  V913  1  0.50000000  0.33333333  0.08333333  1
  V  V914  1  0.50000000  0.33333333  0.16666667  1
  V  V915  1  0.50000000  0.33333333  0.25000000  1
  W  W916  1  0.50000000  0.33333333  0.33333333  1
  V  V917  1  0.50000000  0.33333333  0.41666667  1
  V  V918  1  0.50000000  0.33333333  0.50000000  1
  Ti  Ti919  1  0.50000000  0.33333333  0.58333333  1
  Zr  Zr920  1  0.50000000  0.33333333  0.66666667  1
  Zr  Zr921  1  0.50000000  0.33333333  0.75000000  1
  Zr  Zr922  1  0.50000000  0.33333333  0.83333333  1
  W  W923  1  0.50000000  0.33333333  0.91666667  1
  V  V924  1  0.50000000  0.41666667  1.00000000  1
  V  V925  1  0.50000000  0.41666667  0.08333333  1
  V  V926  1  0.50000000  0.41666667  0.16666667  1
  V  V927  1  0.50000000  0.41666667  0.25000000  1
  V  V928  1  0.50000000  0.41666667  0.33333333  1
  V  V929  1  0.50000000  0.41666667  0.41666667  1
  V  V930  1  0.50000000  0.41666667  0.50000000  1
  Ti  Ti931  1  0.50000000  0.41666667  0.58333333  1
  Zr  Zr932  1  0.50000000  0.41666667  0.66666667  1
  Zr  Zr933  1  0.50000000  0.41666667  0.75000000  1
  Zr  Zr934  1  0.50000000  0.41666667  0.83333333  1
  Ti  Ti935  1  0.50000000  0.41666667  0.91666667  1
  V  V936  1  0.50000000  0.50000000  1.00000000  1
  V  V937  1  0.50000000  0.50000000  0.08333333  1
  V  V938  1  0.50000000  0.50000000  0.16666667  1
  V  V939  1  0.50000000  0.50000000  0.25000000  1
  W  W940  1  0.50000000  0.50000000  0.33333333  1
  V  V941  1  0.50000000  0.50000000  0.41666667  1
  V  V942  1  0.50000000  0.50000000  0.50000000  1
  V  V943  1  0.50000000  0.50000000  0.58333333  1
  Zr  Zr944  1  0.50000000  0.50000000  0.66666667  1
  Zr  Zr945  1  0.50000000  0.50000000  0.75000000  1
  Zr  Zr946  1  0.50000000  0.50000000  0.83333333  1
  Ti  Ti947  1  0.50000000  0.50000000  0.91666667  1
  V  V948  1  0.50000000  0.58333333  0.00000000  1
  V  V949  1  0.50000000  0.58333333  0.08333333  1
  V  V950  1  0.50000000  0.58333333  0.16666667  1
  V  V951  1  0.50000000  0.58333333  0.25000000  1
  V  V952  1  0.50000000  0.58333333  0.33333333  1
  V  V953  1  0.50000000  0.58333333  0.41666667  1
  V  V954  1  0.50000000  0.58333333  0.50000000  1
  Ti  Ti955  1  0.50000000  0.58333333  0.58333333  1
  Zr  Zr956  1  0.50000000  0.58333333  0.66666667  1
  Zr  Zr957  1  0.50000000  0.58333333  0.75000000  1
  Zr  Zr958  1  0.50000000  0.58333333  0.83333333  1
  Ti  Ti959  1  0.50000000  0.58333333  0.91666667  1
  V  V960  1  0.50000000  0.66666667  1.00000000  1
  V  V961  1  0.50000000  0.66666667  0.08333333  1
  V  V962  1  0.50000000  0.66666667  0.16666667  1
  W  W963  1  0.50000000  0.66666667  0.25000000  1
  V  V964  1  0.50000000  0.66666667  0.33333333  1
  V  V965  1  0.50000000  0.66666667  0.41666667  1
  V  V966  1  0.50000000  0.66666667  0.50000000  1
  V  V967  1  0.50000000  0.66666667  0.58333333  1
  Zr  Zr968  1  0.50000000  0.66666667  0.66666667  1
  Zr  Zr969  1  0.50000000  0.66666667  0.75000000  1
  Zr  Zr970  1  0.50000000  0.66666667  0.83333333  1
  Ti  Ti971  1  0.50000000  0.66666667  0.91666667  1
  W  W972  1  0.50000000  0.75000000  1.00000000  1
  V  V973  1  0.50000000  0.75000000  0.08333333  1
  V  V974  1  0.50000000  0.75000000  0.16666667  1
  V  V975  1  0.50000000  0.75000000  0.25000000  1
  V  V976  1  0.50000000  0.75000000  0.33333333  1
  V  V977  1  0.50000000  0.75000000  0.41666667  1
  W  W978  1  0.50000000  0.75000000  0.50000000  1
  Ti  Ti979  1  0.50000000  0.75000000  0.58333333  1
  Zr  Zr980  1  0.50000000  0.75000000  0.66666667  1
  Zr  Zr981  1  0.50000000  0.75000000  0.75000000  1
  Zr  Zr982  1  0.50000000  0.75000000  0.83333333  1
  V  V983  1  0.50000000  0.75000000  0.91666667  1
  V  V984  1  0.50000000  0.83333333  0.00000000  1
  V  V985  1  0.50000000  0.83333333  0.08333333  1
  V  V986  1  0.50000000  0.83333333  0.16666667  1
  V  V987  1  0.50000000  0.83333333  0.25000000  1
  W  W988  1  0.50000000  0.83333333  0.33333333  1
  W  W989  1  0.50000000  0.83333333  0.41666667  1
  Ti  Ti990  1  0.50000000  0.83333333  0.50000000  1
  Zr  Zr991  1  0.50000000  0.83333333  0.58333333  1
  Zr  Zr992  1  0.50000000  0.83333333  0.66666667  1
  Zr  Zr993  1  0.50000000  0.83333333  0.75000000  1
  Zr  Zr994  1  0.50000000  0.83333333  0.83333333  1
  V  V995  1  0.50000000  0.83333333  0.91666667  1
  V  V996  1  0.50000000  0.91666667  0.00000000  1
  V  V997  1  0.50000000  0.91666667  0.08333333  1
  W  W998  1  0.50000000  0.91666667  0.16666667  1
  V  V999  1  0.50000000  0.91666667  0.25000000  1
  V  V1000  1  0.50000000  0.91666667  0.33333333  1
  V  V1001  1  0.50000000  0.91666667  0.41666667  1
  Ti  Ti1002  1  0.50000000  0.91666667  0.50000000  1
  Zr  Zr1003  1  0.50000000  0.91666667  0.58333333  1
  Zr  Zr1004  1  0.50000000  0.91666667  0.66666667  1
  Zr  Zr1005  1  0.50000000  0.91666667  0.75000000  1
  Zr  Zr1006  1  0.50000000  0.91666667  0.83333333  1
  Ti  Ti1007  1  0.50000000  0.91666667  0.91666667  1
  V  V1008  1  0.58333333  0.00000000  0.00000000  1
  W  W1009  1  0.58333333  0.00000000  0.08333333  1
  V  V1010  1  0.58333333  0.00000000  0.16666667  1
  V  V1011  1  0.58333333  0.00000000  0.25000000  1
  V  V1012  1  0.58333333  0.00000000  0.33333333  1
  V  V1013  1  0.58333333  0.00000000  0.41666667  1
  V  V1014  1  0.58333333  0.00000000  0.50000000  1
  Zr  Zr1015  1  0.58333333  0.00000000  0.58333333  1
  Zr  Zr1016  1  0.58333333  0.00000000  0.66666667  1
  Zr  Zr1017  1  0.58333333  0.00000000  0.75000000  1
  Zr  Zr1018  1  0.58333333  0.00000000  0.83333333  1
  Zr  Zr1019  1  0.58333333  0.00000000  0.91666667  1
  W  W1020  1  0.58333333  0.08333333  0.00000000  1
  V  V1021  1  0.58333333  0.08333333  0.08333333  1
  V  V1022  1  0.58333333  0.08333333  0.16666667  1
  V  V1023  1  0.58333333  0.08333333  0.25000000  1
  V  V1024  1  0.58333333  0.08333333  0.33333333  1
  V  V1025  1  0.58333333  0.08333333  0.41666667  1
  W  W1026  1  0.58333333  0.08333333  0.50000000  1
  Zr  Zr1027  1  0.58333333  0.08333333  0.58333333  1
  Zr  Zr1028  1  0.58333333  0.08333333  0.66666667  1
  Zr  Zr1029  1  0.58333333  0.08333333  0.75000000  1
  Zr  Zr1030  1  0.58333333  0.08333333  0.83333333  1
  Zr  Zr1031  1  0.58333333  0.08333333  0.91666667  1
  V  V1032  1  0.58333333  0.16666667  0.00000000  1
  V  V1033  1  0.58333333  0.16666667  0.08333333  1
  V  V1034  1  0.58333333  0.16666667  0.16666667  1
  Cr  Cr1035  1  0.58333333  0.16666667  0.25000000  1
  V  V1036  1  0.58333333  0.16666667  0.33333333  1
  V  V1037  1  0.58333333  0.16666667  0.41666667  1
  V  V1038  1  0.58333333  0.16666667  0.50000000  1
  Zr  Zr1039  1  0.58333333  0.16666667  0.58333333  1
  Zr  Zr1040  1  0.58333333  0.16666667  0.66666667  1
  Zr  Zr1041  1  0.58333333  0.16666667  0.75000000  1
  Zr  Zr1042  1  0.58333333  0.16666667  0.83333333  1
  Zr  Zr1043  1  0.58333333  0.16666667  0.91666667  1
  Ti  Ti1044  1  0.58333333  0.25000000  0.00000000  1
  W  W1045  1  0.58333333  0.25000000  0.08333333  1
  V  V1046  1  0.58333333  0.25000000  0.16666667  1
  V  V1047  1  0.58333333  0.25000000  0.25000000  1
  Cr  Cr1048  1  0.58333333  0.25000000  0.33333333  1
  V  V1049  1  0.58333333  0.25000000  0.41666667  1
  V  V1050  1  0.58333333  0.25000000  0.50000000  1
  V  V1051  1  0.58333333  0.25000000  0.58333333  1
  Zr  Zr1052  1  0.58333333  0.25000000  0.66666667  1
  Zr  Zr1053  1  0.58333333  0.25000000  0.75000000  1
  Zr  Zr1054  1  0.58333333  0.25000000  0.83333333  1
  Zr  Zr1055  1  0.58333333  0.25000000  0.91666667  1
  Ti  Ti1056  1  0.58333333  0.33333333  1.00000000  1
  V  V1057  1  0.58333333  0.33333333  0.08333333  1
  V  V1058  1  0.58333333  0.33333333  0.16666667  1
  V  V1059  1  0.58333333  0.33333333  0.25000000  1
  V  V1060  1  0.58333333  0.33333333  0.33333333  1
  W  W1061  1  0.58333333  0.33333333  0.41666667  1
  W  W1062  1  0.58333333  0.33333333  0.50000000  1
  V  V1063  1  0.58333333  0.33333333  0.58333333  1
  Zr  Zr1064  1  0.58333333  0.33333333  0.66666667  1
  Zr  Zr1065  1  0.58333333  0.33333333  0.75000000  1
  Zr  Zr1066  1  0.58333333  0.33333333  0.83333333  1
  Zr  Zr1067  1  0.58333333  0.33333333  0.91666667  1
  V  V1068  1  0.58333333  0.41666667  0.00000000  1
  V  V1069  1  0.58333333  0.41666667  0.08333333  1
  V  V1070  1  0.58333333  0.41666667  0.16666667  1
  V  V1071  1  0.58333333  0.41666667  0.25000000  1
  Cr  Cr1072  1  0.58333333  0.41666667  0.33333333  1
  W  W1073  1  0.58333333  0.41666667  0.41666667  1
  V  V1074  1  0.58333333  0.41666667  0.50000000  1
  Ti  Ti1075  1  0.58333333  0.41666667  0.58333333  1
  Zr  Zr1076  1  0.58333333  0.41666667  0.66666667  1
  Zr  Zr1077  1  0.58333333  0.41666667  0.75000000  1
  Zr  Zr1078  1  0.58333333  0.41666667  0.83333333  1
  Zr  Zr1079  1  0.58333333  0.41666667  0.91666667  1
  Ti  Ti1080  1  0.58333333  0.50000000  0.00000000  1
  V  V1081  1  0.58333333  0.50000000  0.08333333  1
  W  W1082  1  0.58333333  0.50000000  0.16666667  1
  W  W1083  1  0.58333333  0.50000000  0.25000000  1
  V  V1084  1  0.58333333  0.50000000  0.33333333  1
  V  V1085  1  0.58333333  0.50000000  0.41666667  1
  V  V1086  1  0.58333333  0.50000000  0.50000000  1
  V  V1087  1  0.58333333  0.50000000  0.58333333  1
  Zr  Zr1088  1  0.58333333  0.50000000  0.66666667  1
  Zr  Zr1089  1  0.58333333  0.50000000  0.75000000  1
  Zr  Zr1090  1  0.58333333  0.50000000  0.83333333  1
  Zr  Zr1091  1  0.58333333  0.50000000  0.91666667  1
  V  V1092  1  0.58333333  0.58333333  0.00000000  1
  W  W1093  1  0.58333333  0.58333333  0.08333333  1
  W  W1094  1  0.58333333  0.58333333  0.16666667  1
  V  V1095  1  0.58333333  0.58333333  0.25000000  1
  V  V1096  1  0.58333333  0.58333333  0.33333333  1
  V  V1097  1  0.58333333  0.58333333  0.41666667  1
  W  W1098  1  0.58333333  0.58333333  0.50000000  1
  V  V1099  1  0.58333333  0.58333333  0.58333333  1
  Zr  Zr1100  1  0.58333333  0.58333333  0.66666667  1
  Zr  Zr1101  1  0.58333333  0.58333333  0.75000000  1
  Zr  Zr1102  1  0.58333333  0.58333333  0.83333333  1
  Zr  Zr1103  1  0.58333333  0.58333333  0.91666667  1
  V  V1104  1  0.58333333  0.66666667  1.00000000  1
  V  V1105  1  0.58333333  0.66666667  0.08333333  1
  V  V1106  1  0.58333333  0.66666667  0.16666667  1
  V  V1107  1  0.58333333  0.66666667  0.25000000  1
  V  V1108  1  0.58333333  0.66666667  0.33333333  1
  W  W1109  1  0.58333333  0.66666667  0.41666667  1
  V  V1110  1  0.58333333  0.66666667  0.50000000  1
  V  V1111  1  0.58333333  0.66666667  0.58333333  1
  Zr  Zr1112  1  0.58333333  0.66666667  0.66666667  1
  Zr  Zr1113  1  0.58333333  0.66666667  0.75000000  1
  Zr  Zr1114  1  0.58333333  0.66666667  0.83333333  1
  Zr  Zr1115  1  0.58333333  0.66666667  0.91666667  1
  V  V1116  1  0.58333333  0.75000000  1.00000000  1
  V  V1117  1  0.58333333  0.75000000  0.08333333  1
  V  V1118  1  0.58333333  0.75000000  0.16666667  1
  V  V1119  1  0.58333333  0.75000000  0.25000000  1
  V  V1120  1  0.58333333  0.75000000  0.33333333  1
  V  V1121  1  0.58333333  0.75000000  0.41666667  1
  W  W1122  1  0.58333333  0.75000000  0.50000000  1
  Ti  Ti1123  1  0.58333333  0.75000000  0.58333333  1
  Zr  Zr1124  1  0.58333333  0.75000000  0.66666667  1
  Zr  Zr1125  1  0.58333333  0.75000000  0.75000000  1
  Zr  Zr1126  1  0.58333333  0.75000000  0.83333333  1
  Zr  Zr1127  1  0.58333333  0.75000000  0.91666667  1
  W  W1128  1  0.58333333  0.83333333  0.00000000  1
  W  W1129  1  0.58333333  0.83333333  0.08333333  1
  V  V1130  1  0.58333333  0.83333333  0.16666667  1
  V  V1131  1  0.58333333  0.83333333  0.25000000  1
  V  V1132  1  0.58333333  0.83333333  0.33333333  1
  V  V1133  1  0.58333333  0.83333333  0.41666667  1
  V  V1134  1  0.58333333  0.83333333  0.50000000  1
  Ti  Ti1135  1  0.58333333  0.83333333  0.58333333  1
  Zr  Zr1136  1  0.58333333  0.83333333  0.66666667  1
  Zr  Zr1137  1  0.58333333  0.83333333  0.75000000  1
  Zr  Zr1138  1  0.58333333  0.83333333  0.83333333  1
  Zr  Zr1139  1  0.58333333  0.83333333  0.91666667  1
  V  V1140  1  0.58333333  0.91666667  1.00000000  1
  V  V1141  1  0.58333333  0.91666667  0.08333333  1
  V  V1142  1  0.58333333  0.91666667  0.16666667  1
  V  V1143  1  0.58333333  0.91666667  0.25000000  1
  W  W1144  1  0.58333333  0.91666667  0.33333333  1
  V  V1145  1  0.58333333  0.91666667  0.41666667  1
  V  V1146  1  0.58333333  0.91666667  0.50000000  1
  Zr  Zr1147  1  0.58333333  0.91666667  0.58333333  1
  Zr  Zr1148  1  0.58333333  0.91666667  0.66666667  1
  Zr  Zr1149  1  0.58333333  0.91666667  0.75000000  1
  Zr  Zr1150  1  0.58333333  0.91666667  0.83333333  1
  Zr  Zr1151  1  0.58333333  0.91666667  0.91666667  1
  Ti  Ti1152  1  0.66666667  0.00000000  0.00000000  1
  V  V1153  1  0.66666667  0.00000000  0.08333333  1
  W  W1154  1  0.66666667  0.00000000  0.16666667  1
  V  V1155  1  0.66666667  0.00000000  0.25000000  1
  V  V1156  1  0.66666667  0.00000000  0.33333333  1
  W  W1157  1  0.66666667  0.00000000  0.41666667  1
  V  V1158  1  0.66666667  0.00000000  0.50000000  1
  Ti  Ti1159  1  0.66666667  0.00000000  0.58333333  1
  Zr  Zr1160  1  0.66666667  0.00000000  0.66666667  1
  Zr  Zr1161  1  0.66666667  0.00000000  0.75000000  1
  Zr  Zr1162  1  0.66666667  0.00000000  0.83333333  1
  Zr  Zr1163  1  0.66666667  0.00000000  0.91666667  1
  Ti  Ti1164  1  0.66666667  0.08333333  0.00000000  1
  V  V1165  1  0.66666667  0.08333333  0.08333333  1
  V  V1166  1  0.66666667  0.08333333  0.16666667  1
  V  V1167  1  0.66666667  0.08333333  0.25000000  1
  V  V1168  1  0.66666667  0.08333333  0.33333333  1
  V  V1169  1  0.66666667  0.08333333  0.41666667  1
  V  V1170  1  0.66666667  0.08333333  0.50000000  1
  V  V1171  1  0.66666667  0.08333333  0.58333333  1
  Zr  Zr1172  1  0.66666667  0.08333333  0.66666667  1
  Zr  Zr1173  1  0.66666667  0.08333333  0.75000000  1
  Zr  Zr1174  1  0.66666667  0.08333333  0.83333333  1
  Zr  Zr1175  1  0.66666667  0.08333333  0.91666667  1
  Ti  Ti1176  1  0.66666667  0.16666667  0.00000000  1
  V  V1177  1  0.66666667  0.16666667  0.08333333  1
  W  W1178  1  0.66666667  0.16666667  0.16666667  1
  Cr  Cr1179  1  0.66666667  0.16666667  0.25000000  1
  Cr  Cr1180  1  0.66666667  0.16666667  0.33333333  1
  V  V1181  1  0.66666667  0.16666667  0.41666667  1
  V  V1182  1  0.66666667  0.16666667  0.50000000  1
  V  V1183  1  0.66666667  0.16666667  0.58333333  1
  Zr  Zr1184  1  0.66666667  0.16666667  0.66666667  1
  Zr  Zr1185  1  0.66666667  0.16666667  0.75000000  1
  Zr  Zr1186  1  0.66666667  0.16666667  0.83333333  1
  Zr  Zr1187  1  0.66666667  0.16666667  0.91666667  1
  Zr  Zr1188  1  0.66666667  0.25000000  0.00000000  1
  V  V1189  1  0.66666667  0.25000000  0.08333333  1
  V  V1190  1  0.66666667  0.25000000  0.16666667  1
  Cr  Cr1191  1  0.66666667  0.25000000  0.25000000  1
  Cr  Cr1192  1  0.66666667  0.25000000  0.33333333  1
  Cr  Cr1193  1  0.66666667  0.25000000  0.41666667  1
  V  V1194  1  0.66666667  0.25000000  0.50000000  1
  V  V1195  1  0.66666667  0.25000000  0.58333333  1
  Zr  Zr1196  1  0.66666667  0.25000000  0.66666667  1
  Zr  Zr1197  1  0.66666667  0.25000000  0.75000000  1
  Zr  Zr1198  1  0.66666667  0.25000000  0.83333333  1
  Zr  Zr1199  1  0.66666667  0.25000000  0.91666667  1
  Zr  Zr1200  1  0.66666667  0.33333333  1.00000000  1
  V  V1201  1  0.66666667  0.33333333  0.08333333  1
  W  W1202  1  0.66666667  0.33333333  0.16666667  1
  Cr  Cr1203  1  0.66666667  0.33333333  0.25000000  1
  Cr  Cr1204  1  0.66666667  0.33333333  0.33333333  1
  Cr  Cr1205  1  0.66666667  0.33333333  0.41666667  1
  V  V1206  1  0.66666667  0.33333333  0.50000000  1
  V  V1207  1  0.66666667  0.33333333  0.58333333  1
  Zr  Zr1208  1  0.66666667  0.33333333  0.66666667  1
  Zr  Zr1209  1  0.66666667  0.33333333  0.75000000  1
  Zr  Zr1210  1  0.66666667  0.33333333  0.83333333  1
  Zr  Zr1211  1  0.66666667  0.33333333  0.91666667  1
  Zr  Zr1212  1  0.66666667  0.41666667  0.00000000  1
  W  W1213  1  0.66666667  0.41666667  0.08333333  1
  W  W1214  1  0.66666667  0.41666667  0.16666667  1
  Cr  Cr1215  1  0.66666667  0.41666667  0.25000000  1
  Cr  Cr1216  1  0.66666667  0.41666667  0.33333333  1
  Cr  Cr1217  1  0.66666667  0.41666667  0.41666667  1
  Cr  Cr1218  1  0.66666667  0.41666667  0.50000000  1
  V  V1219  1  0.66666667  0.41666667  0.58333333  1
  Zr  Zr1220  1  0.66666667  0.41666667  0.66666667  1
  Zr  Zr1221  1  0.66666667  0.41666667  0.75000000  1
  Zr  Zr1222  1  0.66666667  0.41666667  0.83333333  1
  Zr  Zr1223  1  0.66666667  0.41666667  0.91666667  1
  Ti  Ti1224  1  0.66666667  0.50000000  0.00000000  1
  V  V1225  1  0.66666667  0.50000000  0.08333333  1
  V  V1226  1  0.66666667  0.50000000  0.16666667  1
  V  V1227  1  0.66666667  0.50000000  0.25000000  1
  V  V1228  1  0.66666667  0.50000000  0.33333333  1
  Cr  Cr1229  1  0.66666667  0.50000000  0.41666667  1
  V  V1230  1  0.66666667  0.50000000  0.50000000  1
  V  V1231  1  0.66666667  0.50000000  0.58333333  1
  V  V1232  1  0.66666667  0.50000000  0.66666667  1
  Zr  Zr1233  1  0.66666667  0.50000000  0.75000000  1
  Zr  Zr1234  1  0.66666667  0.50000000  0.83333333  1
  Zr  Zr1235  1  0.66666667  0.50000000  0.91666667  1
  W  W1236  1  0.66666667  0.58333333  0.00000000  1
  V  V1237  1  0.66666667  0.58333333  0.08333333  1
  V  V1238  1  0.66666667  0.58333333  0.16666667  1
  V  V1239  1  0.66666667  0.58333333  0.25000000  1
  V  V1240  1  0.66666667  0.58333333  0.33333333  1
  V  V1241  1  0.66666667  0.58333333  0.41666667  1
  V  V1242  1  0.66666667  0.58333333  0.50000000  1
  V  V1243  1  0.66666667  0.58333333  0.58333333  1
  Ti  Ti1244  1  0.66666667  0.58333333  0.66666667  1
  Zr  Zr1245  1  0.66666667  0.58333333  0.75000000  1
  Zr  Zr1246  1  0.66666667  0.58333333  0.83333333  1
  Zr  Zr1247  1  0.66666667  0.58333333  0.91666667  1
  Ti  Ti1248  1  0.66666667  0.66666667  0.00000000  1
  V  V1249  1  0.66666667  0.66666667  0.08333333  1
  V  V1250  1  0.66666667  0.66666667  0.16666667  1
  V  V1251  1  0.66666667  0.66666667  0.25000000  1
  V  V1252  1  0.66666667  0.66666667  0.33333333  1
  W  W1253  1  0.66666667  0.66666667  0.41666667  1
  V  V1254  1  0.66666667  0.66666667  0.50000000  1
  W  W1255  1  0.66666667  0.66666667  0.58333333  1
  Ti  Ti1256  1  0.66666667  0.66666667  0.66666667  1
  Zr  Zr1257  1  0.66666667  0.66666667  0.75000000  1
  Zr  Zr1258  1  0.66666667  0.66666667  0.83333333  1
  Zr  Zr1259  1  0.66666667  0.66666667  0.91666667  1
  V  V1260  1  0.66666667  0.75000000  1.00000000  1
  V  V1261  1  0.66666667  0.75000000  0.08333333  1
  V  V1262  1  0.66666667  0.75000000  0.16666667  1
  V  V1263  1  0.66666667  0.75000000  0.25000000  1
  W  W1264  1  0.66666667  0.75000000  0.33333333  1
  V  V1265  1  0.66666667  0.75000000  0.41666667  1
  V  V1266  1  0.66666667  0.75000000  0.50000000  1
  V  V1267  1  0.66666667  0.75000000  0.58333333  1
  Ti  Ti1268  1  0.66666667  0.75000000  0.66666667  1
  Zr  Zr1269  1  0.66666667  0.75000000  0.75000000  1
  Zr  Zr1270  1  0.66666667  0.75000000  0.83333333  1
  Zr  Zr1271  1  0.66666667  0.75000000  0.91666667  1
  Ti  Ti1272  1  0.66666667  0.83333333  0.00000000  1
  V  V1273  1  0.66666667  0.83333333  0.08333333  1
  V  V1274  1  0.66666667  0.83333333  0.16666667  1
  V  V1275  1  0.66666667  0.83333333  0.25000000  1
  V  V1276  1  0.66666667  0.83333333  0.33333333  1
  V  V1277  1  0.66666667  0.83333333  0.41666667  1
  V  V1278  1  0.66666667  0.83333333  0.50000000  1
  V  V1279  1  0.66666667  0.83333333  0.58333333  1
  Ti  Ti1280  1  0.66666667  0.83333333  0.66666667  1
  Zr  Zr1281  1  0.66666667  0.83333333  0.75000000  1
  Zr  Zr1282  1  0.66666667  0.83333333  0.83333333  1
  Zr  Zr1283  1  0.66666667  0.83333333  0.91666667  1
  Ti  Ti1284  1  0.66666667  0.91666667  1.00000000  1
  V  V1285  1  0.66666667  0.91666667  0.08333333  1
  V  V1286  1  0.66666667  0.91666667  0.16666667  1
  W  W1287  1  0.66666667  0.91666667  0.25000000  1
  V  V1288  1  0.66666667  0.91666667  0.33333333  1
  W  W1289  1  0.66666667  0.91666667  0.41666667  1
  V  V1290  1  0.66666667  0.91666667  0.50000000  1
  Ti  Ti1291  1  0.66666667  0.91666667  0.58333333  1
  Zr  Zr1292  1  0.66666667  0.91666667  0.66666667  1
  Zr  Zr1293  1  0.66666667  0.91666667  0.75000000  1
  Zr  Zr1294  1  0.66666667  0.91666667  0.83333333  1
  Zr  Zr1295  1  0.66666667  0.91666667  0.91666667  1
  V  V1296  1  0.75000000  0.00000000  0.00000000  1
  V  V1297  1  0.75000000  0.00000000  0.08333333  1
  V  V1298  1  0.75000000  0.00000000  0.16666667  1
  V  V1299  1  0.75000000  0.00000000  0.25000000  1
  V  V1300  1  0.75000000  0.00000000  0.33333333  1
  V  V1301  1  0.75000000  0.00000000  0.41666667  1
  V  V1302  1  0.75000000  0.00000000  0.50000000  1
  V  V1303  1  0.75000000  0.00000000  0.58333333  1
  V  V1304  1  0.75000000  0.00000000  0.66666667  1
  Zr  Zr1305  1  0.75000000  0.00000000  0.75000000  1
  Zr  Zr1306  1  0.75000000  0.00000000  0.83333333  1
  Zr  Zr1307  1  0.75000000  0.00000000  0.91666667  1
  Ti  Ti1308  1  0.75000000  0.08333333  0.00000000  1
  V  V1309  1  0.75000000  0.08333333  0.08333333  1
  V  V1310  1  0.75000000  0.08333333  0.16666667  1
  V  V1311  1  0.75000000  0.08333333  0.25000000  1
  W  W1312  1  0.75000000  0.08333333  0.33333333  1
  V  V1313  1  0.75000000  0.08333333  0.41666667  1
  V  V1314  1  0.75000000  0.08333333  0.50000000  1
  V  V1315  1  0.75000000  0.08333333  0.58333333  1
  V  V1316  1  0.75000000  0.08333333  0.66666667  1
  Zr  Zr1317  1  0.75000000  0.08333333  0.75000000  1
  Zr  Zr1318  1  0.75000000  0.08333333  0.83333333  1
  Zr  Zr1319  1  0.75000000  0.08333333  0.91666667  1
  Ti  Ti1320  1  0.75000000  0.16666667  0.00000000  1
  V  V1321  1  0.75000000  0.16666667  0.08333333  1
  V  V1322  1  0.75000000  0.16666667  0.16666667  1
  Cr  Cr1323  1  0.75000000  0.16666667  0.25000000  1
  Cr  Cr1324  1  0.75000000  0.16666667  0.33333333  1
  Cr  Cr1325  1  0.75000000  0.16666667  0.41666667  1
  V  V1326  1  0.75000000  0.16666667  0.50000000  1
  V  V1327  1  0.75000000  0.16666667  0.58333333  1
  Ti  Ti1328  1  0.75000000  0.16666667  0.66666667  1
  Zr  Zr1329  1  0.75000000  0.16666667  0.75000000  1
  Zr  Zr1330  1  0.75000000  0.16666667  0.83333333  1
  Zr  Zr1331  1  0.75000000  0.16666667  0.91666667  1
  Ti  Ti1332  1  0.75000000  0.25000000  0.00000000  1
  V  V1333  1  0.75000000  0.25000000  0.08333333  1
  V  V1334  1  0.75000000  0.25000000  0.16666667  1
  Cr  Cr1335  1  0.75000000  0.25000000  0.25000000  1
  Cr  Cr1336  1  0.75000000  0.25000000  0.33333333  1
  Cr  Cr1337  1  0.75000000  0.25000000  0.41666667  1
  Cr  Cr1338  1  0.75000000  0.25000000  0.50000000  1
  Ti  Ti1339  1  0.75000000  0.25000000  0.58333333  1
  V  V1340  1  0.75000000  0.25000000  0.66666667  1
  Zr  Zr1341  1  0.75000000  0.25000000  0.75000000  1
  Zr  Zr1342  1  0.75000000  0.25000000  0.83333333  1
  Zr  Zr1343  1  0.75000000  0.25000000  0.91666667  1
  Zr  Zr1344  1  0.75000000  0.33333333  0.00000000  1
  V  V1345  1  0.75000000  0.33333333  0.08333333  1
  V  V1346  1  0.75000000  0.33333333  0.16666667  1
  Cr  Cr1347  1  0.75000000  0.33333333  0.25000000  1
  Cr  Cr1348  1  0.75000000  0.33333333  0.33333333  1
  Cr  Cr1349  1  0.75000000  0.33333333  0.41666667  1
  Cr  Cr1350  1  0.75000000  0.33333333  0.50000000  1
  V  V1351  1  0.75000000  0.33333333  0.58333333  1
  Ti  Ti1352  1  0.75000000  0.33333333  0.66666667  1
  Zr  Zr1353  1  0.75000000  0.33333333  0.75000000  1
  Zr  Zr1354  1  0.75000000  0.33333333  0.83333333  1
  Zr  Zr1355  1  0.75000000  0.33333333  0.91666667  1
  Zr  Zr1356  1  0.75000000  0.41666667  0.00000000  1
  V  V1357  1  0.75000000  0.41666667  0.08333333  1
  V  V1358  1  0.75000000  0.41666667  0.16666667  1
  Cr  Cr1359  1  0.75000000  0.41666667  0.25000000  1
  Cr  Cr1360  1  0.75000000  0.41666667  0.33333333  1
  Cr  Cr1361  1  0.75000000  0.41666667  0.41666667  1
  Cr  Cr1362  1  0.75000000  0.41666667  0.50000000  1
  V  V1363  1  0.75000000  0.41666667  0.58333333  1
  V  V1364  1  0.75000000  0.41666667  0.66666667  1
  Zr  Zr1365  1  0.75000000  0.41666667  0.75000000  1
  Zr  Zr1366  1  0.75000000  0.41666667  0.83333333  1
  Zr  Zr1367  1  0.75000000  0.41666667  0.91666667  1
  Zr  Zr1368  1  0.75000000  0.50000000  0.00000000  1
  Ti  Ti1369  1  0.75000000  0.50000000  0.08333333  1
  V  V1370  1  0.75000000  0.50000000  0.16666667  1
  Cr  Cr1371  1  0.75000000  0.50000000  0.25000000  1
  Cr  Cr1372  1  0.75000000  0.50000000  0.33333333  1
  Cr  Cr1373  1  0.75000000  0.50000000  0.41666667  1
  Cr  Cr1374  1  0.75000000  0.50000000  0.50000000  1
  Cr  Cr1375  1  0.75000000  0.50000000  0.58333333  1
  Ti  Ti1376  1  0.75000000  0.50000000  0.66666667  1
  Zr  Zr1377  1  0.75000000  0.50000000  0.75000000  1
  Zr  Zr1378  1  0.75000000  0.50000000  0.83333333  1
  Zr  Zr1379  1  0.75000000  0.50000000  0.91666667  1
  Ti  Ti1380  1  0.75000000  0.58333333  0.00000000  1
  W  W1381  1  0.75000000  0.58333333  0.08333333  1
  W  W1382  1  0.75000000  0.58333333  0.16666667  1
  V  V1383  1  0.75000000  0.58333333  0.25000000  1
  Cr  Cr1384  1  0.75000000  0.58333333  0.33333333  1
  Cr  Cr1385  1  0.75000000  0.58333333  0.41666667  1
  V  V1386  1  0.75000000  0.58333333  0.50000000  1
  Cr  Cr1387  1  0.75000000  0.58333333  0.58333333  1
  V  V1388  1  0.75000000  0.58333333  0.66666667  1
  Ti  Ti1389  1  0.75000000  0.58333333  0.75000000  1
  Zr  Zr1390  1  0.75000000  0.58333333  0.83333333  1
  Zr  Zr1391  1  0.75000000  0.58333333  0.91666667  1
  Ti  Ti1392  1  0.75000000  0.66666667  0.00000000  1
  V  V1393  1  0.75000000  0.66666667  0.08333333  1
  V  V1394  1  0.75000000  0.66666667  0.16666667  1
  V  V1395  1  0.75000000  0.66666667  0.25000000  1
  V  V1396  1  0.75000000  0.66666667  0.33333333  1
  V  V1397  1  0.75000000  0.66666667  0.41666667  1
  V  V1398  1  0.75000000  0.66666667  0.50000000  1
  V  V1399  1  0.75000000  0.66666667  0.58333333  1
  V  V1400  1  0.75000000  0.66666667  0.66666667  1
  Ti  Ti1401  1  0.75000000  0.66666667  0.75000000  1
  Zr  Zr1402  1  0.75000000  0.66666667  0.83333333  1
  Zr  Zr1403  1  0.75000000  0.66666667  0.91666667  1
  Ti  Ti1404  1  0.75000000  0.75000000  1.00000000  1
  V  V1405  1  0.75000000  0.75000000  0.08333333  1
  V  V1406  1  0.75000000  0.75000000  0.16666667  1
  V  V1407  1  0.75000000  0.75000000  0.25000000  1
  V  V1408  1  0.75000000  0.75000000  0.33333333  1
  V  V1409  1  0.75000000  0.75000000  0.41666667  1
  V  V1410  1  0.75000000  0.75000000  0.50000000  1
  V  V1411  1  0.75000000  0.75000000  0.58333333  1
  W  W1412  1  0.75000000  0.75000000  0.66666667  1
  Ti  Ti1413  1  0.75000000  0.75000000  0.75000000  1
  Zr  Zr1414  1  0.75000000  0.75000000  0.83333333  1
  Zr  Zr1415  1  0.75000000  0.75000000  0.91666667  1
  Ti  Ti1416  1  0.75000000  0.83333333  1.00000000  1
  V  V1417  1  0.75000000  0.83333333  0.08333333  1
  V  V1418  1  0.75000000  0.83333333  0.16666667  1
  V  V1419  1  0.75000000  0.83333333  0.25000000  1
  V  V1420  1  0.75000000  0.83333333  0.33333333  1
  V  V1421  1  0.75000000  0.83333333  0.41666667  1
  V  V1422  1  0.75000000  0.83333333  0.50000000  1
  W  W1423  1  0.75000000  0.83333333  0.58333333  1
  V  V1424  1  0.75000000  0.83333333  0.66666667  1
  Ti  Ti1425  1  0.75000000  0.83333333  0.75000000  1
  Zr  Zr1426  1  0.75000000  0.83333333  0.83333333  1
  Zr  Zr1427  1  0.75000000  0.83333333  0.91666667  1
  W  W1428  1  0.75000000  0.91666667  0.00000000  1
  V  V1429  1  0.75000000  0.91666667  0.08333333  1
  V  V1430  1  0.75000000  0.91666667  0.16666667  1
  W  W1431  1  0.75000000  0.91666667  0.25000000  1
  V  V1432  1  0.75000000  0.91666667  0.33333333  1
  V  V1433  1  0.75000000  0.91666667  0.41666667  1
  V  V1434  1  0.75000000  0.91666667  0.50000000  1
  V  V1435  1  0.75000000  0.91666667  0.58333333  1
  Ti  Ti1436  1  0.75000000  0.91666667  0.66666667  1
  V  V1437  1  0.75000000  0.91666667  0.75000000  1
  Zr  Zr1438  1  0.75000000  0.91666667  0.83333333  1
  Zr  Zr1439  1  0.75000000  0.91666667  0.91666667  1
  V  V1440  1  0.83333333  0.00000000  1.00000000  1
  V  V1441  1  0.83333333  0.00000000  0.08333333  1
  V  V1442  1  0.83333333  0.00000000  0.16666667  1
  V  V1443  1  0.83333333  0.00000000  0.25000000  1
  V  V1444  1  0.83333333  0.00000000  0.33333333  1
  V  V1445  1  0.83333333  0.00000000  0.41666667  1
  V  V1446  1  0.83333333  0.00000000  0.50000000  1
  W  W1447  1  0.83333333  0.00000000  0.58333333  1
  V  V1448  1  0.83333333  0.00000000  0.66666667  1
  V  V1449  1  0.83333333  0.00000000  0.75000000  1
  Ti  Ti1450  1  0.83333333  0.00000000  0.83333333  1
  V  V1451  1  0.83333333  0.00000000  0.91666667  1
  Ti  Ti1452  1  0.83333333  0.08333333  1.00000000  1
  V  V1453  1  0.83333333  0.08333333  0.08333333  1
  V  V1454  1  0.83333333  0.08333333  0.16666667  1
  V  V1455  1  0.83333333  0.08333333  0.25000000  1
  V  V1456  1  0.83333333  0.08333333  0.33333333  1
  V  V1457  1  0.83333333  0.08333333  0.41666667  1
  V  V1458  1  0.83333333  0.08333333  0.50000000  1
  V  V1459  1  0.83333333  0.08333333  0.58333333  1
  W  W1460  1  0.83333333  0.08333333  0.66666667  1
  Ti  Ti1461  1  0.83333333  0.08333333  0.75000000  1
  V  V1462  1  0.83333333  0.08333333  0.83333333  1
  Ti  Ti1463  1  0.83333333  0.08333333  0.91666667  1
  V  V1464  1  0.83333333  0.16666667  1.00000000  1
  V  V1465  1  0.83333333  0.16666667  0.08333333  1
  V  V1466  1  0.83333333  0.16666667  0.16666667  1
  Cr  Cr1467  1  0.83333333  0.16666667  0.25000000  1
  Cr  Cr1468  1  0.83333333  0.16666667  0.33333333  1
  Cr  Cr1469  1  0.83333333  0.16666667  0.41666667  1
  V  V1470  1  0.83333333  0.16666667  0.50000000  1
  W  W1471  1  0.83333333  0.16666667  0.58333333  1
  V  V1472  1  0.83333333  0.16666667  0.66666667  1
  Ti  Ti1473  1  0.83333333  0.16666667  0.75000000  1
  Ti  Ti1474  1  0.83333333  0.16666667  0.83333333  1
  Ti  Ti1475  1  0.83333333  0.16666667  0.91666667  1
  V  V1476  1  0.83333333  0.25000000  0.00000000  1
  W  W1477  1  0.83333333  0.25000000  0.08333333  1
  V  V1478  1  0.83333333  0.25000000  0.16666667  1
  Cr  Cr1479  1  0.83333333  0.25000000  0.25000000  1
  Cr  Cr1480  1  0.83333333  0.25000000  0.33333333  1
  Cr  Cr1481  1  0.83333333  0.25000000  0.41666667  1
  V  V1482  1  0.83333333  0.25000000  0.50000000  1
  V  V1483  1  0.83333333  0.25000000  0.58333333  1
  W  W1484  1  0.83333333  0.25000000  0.66666667  1
  V  V1485  1  0.83333333  0.25000000  0.75000000  1
  Ti  Ti1486  1  0.83333333  0.25000000  0.83333333  1
  Ti  Ti1487  1  0.83333333  0.25000000  0.91666667  1
  Ti  Ti1488  1  0.83333333  0.33333333  1.00000000  1
  W  W1489  1  0.83333333  0.33333333  0.08333333  1
  V  V1490  1  0.83333333  0.33333333  0.16666667  1
  Cr  Cr1491  1  0.83333333  0.33333333  0.25000000  1
  Cr  Cr1492  1  0.83333333  0.33333333  0.33333333  1
  Cr  Cr1493  1  0.83333333  0.33333333  0.41666667  1
  Cr  Cr1494  1  0.83333333  0.33333333  0.50000000  1
  V  V1495  1  0.83333333  0.33333333  0.58333333  1
  V  V1496  1  0.83333333  0.33333333  0.66666667  1
  Ti  Ti1497  1  0.83333333  0.33333333  0.75000000  1
  Ti  Ti1498  1  0.83333333  0.33333333  0.83333333  1
  Ti  Ti1499  1  0.83333333  0.33333333  0.91666667  1
  Ti  Ti1500  1  0.83333333  0.41666667  0.00000000  1
  V  V1501  1  0.83333333  0.41666667  0.08333333  1
  V  V1502  1  0.83333333  0.41666667  0.16666667  1
  Cr  Cr1503  1  0.83333333  0.41666667  0.25000000  1
  Cr  Cr1504  1  0.83333333  0.41666667  0.33333333  1
  Cr  Cr1505  1  0.83333333  0.41666667  0.41666667  1
  Cr  Cr1506  1  0.83333333  0.41666667  0.50000000  1
  Cr  Cr1507  1  0.83333333  0.41666667  0.58333333  1
  V  V1508  1  0.83333333  0.41666667  0.66666667  1
  Ti  Ti1509  1  0.83333333  0.41666667  0.75000000  1
  V  V1510  1  0.83333333  0.41666667  0.83333333  1
  Ti  Ti1511  1  0.83333333  0.41666667  0.91666667  1
  Ti  Ti1512  1  0.83333333  0.50000000  0.00000000  1
  V  V1513  1  0.83333333  0.50000000  0.08333333  1
  V  V1514  1  0.83333333  0.50000000  0.16666667  1
  Cr  Cr1515  1  0.83333333  0.50000000  0.25000000  1
  Cr  Cr1516  1  0.83333333  0.50000000  0.33333333  1
  Cr  Cr1517  1  0.83333333  0.50000000  0.41666667  1
  Cr  Cr1518  1  0.83333333  0.50000000  0.50000000  1
  Cr  Cr1519  1  0.83333333  0.50000000  0.58333333  1
  Cr  Cr1520  1  0.83333333  0.50000000  0.66666667  1
  V  V1521  1  0.83333333  0.50000000  0.75000000  1
  Ti  Ti1522  1  0.83333333  0.50000000  0.83333333  1
  V  V1523  1  0.83333333  0.50000000  0.91666667  1
  V  V1524  1  0.83333333  0.58333333  1.00000000  1
  V  V1525  1  0.83333333  0.58333333  0.08333333  1
  V  V1526  1  0.83333333  0.58333333  0.16666667  1
  V  V1527  1  0.83333333  0.58333333  0.25000000  1
  Cr  Cr1528  1  0.83333333  0.58333333  0.33333333  1
  Cr  Cr1529  1  0.83333333  0.58333333  0.41666667  1
  Cr  Cr1530  1  0.83333333  0.58333333  0.50000000  1
  Cr  Cr1531  1  0.83333333  0.58333333  0.58333333  1
  Cr  Cr1532  1  0.83333333  0.58333333  0.66666667  1
  V  V1533  1  0.83333333  0.58333333  0.75000000  1
  Ti  Ti1534  1  0.83333333  0.58333333  0.83333333  1
  V  V1535  1  0.83333333  0.58333333  0.91666667  1
  V  V1536  1  0.83333333  0.66666667  1.00000000  1
  V  V1537  1  0.83333333  0.66666667  0.08333333  1
  V  V1538  1  0.83333333  0.66666667  0.16666667  1
  V  V1539  1  0.83333333  0.66666667  0.25000000  1
  V  V1540  1  0.83333333  0.66666667  0.33333333  1
  Cr  Cr1541  1  0.83333333  0.66666667  0.41666667  1
  Cr  Cr1542  1  0.83333333  0.66666667  0.50000000  1
  Cr  Cr1543  1  0.83333333  0.66666667  0.58333333  1
  W  W1544  1  0.83333333  0.66666667  0.66666667  1
  V  V1545  1  0.83333333  0.66666667  0.75000000  1
  V  V1546  1  0.83333333  0.66666667  0.83333333  1
  Ti  Ti1547  1  0.83333333  0.66666667  0.91666667  1
  Ti  Ti1548  1  0.83333333  0.75000000  1.00000000  1
  V  V1549  1  0.83333333  0.75000000  0.08333333  1
  V  V1550  1  0.83333333  0.75000000  0.16666667  1
  V  V1551  1  0.83333333  0.75000000  0.25000000  1
  V  V1552  1  0.83333333  0.75000000  0.33333333  1
  V  V1553  1  0.83333333  0.75000000  0.41666667  1
  V  V1554  1  0.83333333  0.75000000  0.50000000  1
  V  V1555  1  0.83333333  0.75000000  0.58333333  1
  V  V1556  1  0.83333333  0.75000000  0.66666667  1
  W  W1557  1  0.83333333  0.75000000  0.75000000  1
  V  V1558  1  0.83333333  0.75000000  0.83333333  1
  Ti  Ti1559  1  0.83333333  0.75000000  0.91666667  1
  V  V1560  1  0.83333333  0.83333333  1.00000000  1
  V  V1561  1  0.83333333  0.83333333  0.08333333  1
  V  V1562  1  0.83333333  0.83333333  0.16666667  1
  V  V1563  1  0.83333333  0.83333333  0.25000000  1
  V  V1564  1  0.83333333  0.83333333  0.33333333  1
  V  V1565  1  0.83333333  0.83333333  0.41666667  1
  V  V1566  1  0.83333333  0.83333333  0.50000000  1
  V  V1567  1  0.83333333  0.83333333  0.58333333  1
  V  V1568  1  0.83333333  0.83333333  0.66666667  1
  V  V1569  1  0.83333333  0.83333333  0.75000000  1
  Ti  Ti1570  1  0.83333333  0.83333333  0.83333333  1
  V  V1571  1  0.83333333  0.83333333  0.91666667  1
  V  V1572  1  0.83333333  0.91666667  1.00000000  1
  V  V1573  1  0.83333333  0.91666667  0.08333333  1
  V  V1574  1  0.83333333  0.91666667  0.16666667  1
  V  V1575  1  0.83333333  0.91666667  0.25000000  1
  V  V1576  1  0.83333333  0.91666667  0.33333333  1
  V  V1577  1  0.83333333  0.91666667  0.41666667  1
  V  V1578  1  0.83333333  0.91666667  0.50000000  1
  V  V1579  1  0.83333333  0.91666667  0.58333333  1
  V  V1580  1  0.83333333  0.91666667  0.66666667  1
  V  V1581  1  0.83333333  0.91666667  0.75000000  1
  V  V1582  1  0.83333333  0.91666667  0.83333333  1
  W  W1583  1  0.83333333  0.91666667  0.91666667  1
  V  V1584  1  0.91666667  0.00000000  0.00000000  1
  W  W1585  1  0.91666667  0.00000000  0.08333333  1
  V  V1586  1  0.91666667  0.00000000  0.16666667  1
  V  V1587  1  0.91666667  0.00000000  0.25000000  1
  W  W1588  1  0.91666667  0.00000000  0.33333333  1
  V  V1589  1  0.91666667  0.00000000  0.41666667  1
  V  V1590  1  0.91666667  0.00000000  0.50000000  1
  V  V1591  1  0.91666667  0.00000000  0.58333333  1
  V  V1592  1  0.91666667  0.00000000  0.66666667  1
  V  V1593  1  0.91666667  0.00000000  0.75000000  1
  V  V1594  1  0.91666667  0.00000000  0.83333333  1
  V  V1595  1  0.91666667  0.00000000  0.91666667  1
  V  V1596  1  0.91666667  0.08333333  1.00000000  1
  W  W1597  1  0.91666667  0.08333333  0.08333333  1
  W  W1598  1  0.91666667  0.08333333  0.16666667  1
  V  V1599  1  0.91666667  0.08333333  0.25000000  1
  V  V1600  1  0.91666667  0.08333333  0.33333333  1
  V  V1601  1  0.91666667  0.08333333  0.41666667  1
  V  V1602  1  0.91666667  0.08333333  0.50000000  1
  W  W1603  1  0.91666667  0.08333333  0.58333333  1
  V  V1604  1  0.91666667  0.08333333  0.66666667  1
  W  W1605  1  0.91666667  0.08333333  0.75000000  1
  V  V1606  1  0.91666667  0.08333333  0.83333333  1
  V  V1607  1  0.91666667  0.08333333  0.91666667  1
  V  V1608  1  0.91666667  0.16666667  0.00000000  1
  V  V1609  1  0.91666667  0.16666667  0.08333333  1
  V  V1610  1  0.91666667  0.16666667  0.16666667  1
  V  V1611  1  0.91666667  0.16666667  0.25000000  1
  V  V1612  1  0.91666667  0.16666667  0.33333333  1
  Cr  Cr1613  1  0.91666667  0.16666667  0.41666667  1
  V  V1614  1  0.91666667  0.16666667  0.50000000  1
  V  V1615  1  0.91666667  0.16666667  0.58333333  1
  V  V1616  1  0.91666667  0.16666667  0.66666667  1
  V  V1617  1  0.91666667  0.16666667  0.75000000  1
  V  V1618  1  0.91666667  0.16666667  0.83333333  1
  V  V1619  1  0.91666667  0.16666667  0.91666667  1
  V  V1620  1  0.91666667  0.25000000  0.00000000  1
  V  V1621  1  0.91666667  0.25000000  0.08333333  1
  V  V1622  1  0.91666667  0.25000000  0.16666667  1
  V  V1623  1  0.91666667  0.25000000  0.25000000  1
  Cr  Cr1624  1  0.91666667  0.25000000  0.33333333  1
  Cr  Cr1625  1  0.91666667  0.25000000  0.41666667  1
  Cr  Cr1626  1  0.91666667  0.25000000  0.50000000  1
  V  V1627  1  0.91666667  0.25000000  0.58333333  1
  V  V1628  1  0.91666667  0.25000000  0.66666667  1
  V  V1629  1  0.91666667  0.25000000  0.75000000  1
  V  V1630  1  0.91666667  0.25000000  0.83333333  1
  V  V1631  1  0.91666667  0.25000000  0.91666667  1
  V  V1632  1  0.91666667  0.33333333  1.00000000  1
  V  V1633  1  0.91666667  0.33333333  0.08333333  1
  W  W1634  1  0.91666667  0.33333333  0.16666667  1
  Cr  Cr1635  1  0.91666667  0.33333333  0.25000000  1
  Cr  Cr1636  1  0.91666667  0.33333333  0.33333333  1
  Cr  Cr1637  1  0.91666667  0.33333333  0.41666667  1
  Cr  Cr1638  1  0.91666667  0.33333333  0.50000000  1
  Cr  Cr1639  1  0.91666667  0.33333333  0.58333333  1
  V  V1640  1  0.91666667  0.33333333  0.66666667  1
  V  V1641  1  0.91666667  0.33333333  0.75000000  1
  V  V1642  1  0.91666667  0.33333333  0.83333333  1
  V  V1643  1  0.91666667  0.33333333  0.91666667  1
  V  V1644  1  0.91666667  0.41666667  0.00000000  1
  V  V1645  1  0.91666667  0.41666667  0.08333333  1
  V  V1646  1  0.91666667  0.41666667  0.16666667  1
  Cr  Cr1647  1  0.91666667  0.41666667  0.25000000  1
  Cr  Cr1648  1  0.91666667  0.41666667  0.33333333  1
  Cr  Cr1649  1  0.91666667  0.41666667  0.41666667  1
  Cr  Cr1650  1  0.91666667  0.41666667  0.50000000  1
  Cr  Cr1651  1  0.91666667  0.41666667  0.58333333  1
  V  V1652  1  0.91666667  0.41666667  0.66666667  1
  W  W1653  1  0.91666667  0.41666667  0.75000000  1
  W  W1654  1  0.91666667  0.41666667  0.83333333  1
  V  V1655  1  0.91666667  0.41666667  0.91666667  1
  V  V1656  1  0.91666667  0.50000000  0.00000000  1
  V  V1657  1  0.91666667  0.50000000  0.08333333  1
  V  V1658  1  0.91666667  0.50000000  0.16666667  1
  V  V1659  1  0.91666667  0.50000000  0.25000000  1
  Cr  Cr1660  1  0.91666667  0.50000000  0.33333333  1
  Cr  Cr1661  1  0.91666667  0.50000000  0.41666667  1
  Cr  Cr1662  1  0.91666667  0.50000000  0.50000000  1
  Cr  Cr1663  1  0.91666667  0.50000000  0.58333333  1
  Cr  Cr1664  1  0.91666667  0.50000000  0.66666667  1
  V  V1665  1  0.91666667  0.50000000  0.75000000  1
  V  V1666  1  0.91666667  0.50000000  0.83333333  1
  V  V1667  1  0.91666667  0.50000000  0.91666667  1
  V  V1668  1  0.91666667  0.58333333  0.00000000  1
  W  W1669  1  0.91666667  0.58333333  0.08333333  1
  W  W1670  1  0.91666667  0.58333333  0.16666667  1
  V  V1671  1  0.91666667  0.58333333  0.25000000  1
  Cr  Cr1672  1  0.91666667  0.58333333  0.33333333  1
  Cr  Cr1673  1  0.91666667  0.58333333  0.41666667  1
  Cr  Cr1674  1  0.91666667  0.58333333  0.50000000  1
  Cr  Cr1675  1  0.91666667  0.58333333  0.58333333  1
  Cr  Cr1676  1  0.91666667  0.58333333  0.66666667  1
  Cr  Cr1677  1  0.91666667  0.58333333  0.75000000  1
  V  V1678  1  0.91666667  0.58333333  0.83333333  1
  V  V1679  1  0.91666667  0.58333333  0.91666667  1
  V  V1680  1  0.91666667  0.66666667  1.00000000  1
  V  V1681  1  0.91666667  0.66666667  0.08333333  1
  V  V1682  1  0.91666667  0.66666667  0.16666667  1
  V  V1683  1  0.91666667  0.66666667  0.25000000  1
  Cr  Cr1684  1  0.91666667  0.66666667  0.33333333  1
  Cr  Cr1685  1  0.91666667  0.66666667  0.41666667  1
  Cr  Cr1686  1  0.91666667  0.66666667  0.50000000  1
  Cr  Cr1687  1  0.91666667  0.66666667  0.58333333  1
  Cr  Cr1688  1  0.91666667  0.66666667  0.66666667  1
  V  V1689  1  0.91666667  0.66666667  0.75000000  1
  V  V1690  1  0.91666667  0.66666667  0.83333333  1
  V  V1691  1  0.91666667  0.66666667  0.91666667  1
  V  V1692  1  0.91666667  0.75000000  1.00000000  1
  V  V1693  1  0.91666667  0.75000000  0.08333333  1
  V  V1694  1  0.91666667  0.75000000  0.16666667  1
  W  W1695  1  0.91666667  0.75000000  0.25000000  1
  V  V1696  1  0.91666667  0.75000000  0.33333333  1
  Cr  Cr1697  1  0.91666667  0.75000000  0.41666667  1
  Cr  Cr1698  1  0.91666667  0.75000000  0.50000000  1
  Cr  Cr1699  1  0.91666667  0.75000000  0.58333333  1
  Cr  Cr1700  1  0.91666667  0.75000000  0.66666667  1
  V  V1701  1  0.91666667  0.75000000  0.75000000  1
  V  V1702  1  0.91666667  0.75000000  0.83333333  1
  V  V1703  1  0.91666667  0.75000000  0.91666667  1
  V  V1704  1  0.91666667  0.83333333  1.00000000  1
  V  V1705  1  0.91666667  0.83333333  0.08333333  1
  V  V1706  1  0.91666667  0.83333333  0.16666667  1
  V  V1707  1  0.91666667  0.83333333  0.25000000  1
  V  V1708  1  0.91666667  0.83333333  0.33333333  1
  W  W1709  1  0.91666667  0.83333333  0.41666667  1
  V  V1710  1  0.91666667  0.83333333  0.50000000  1
  V  V1711  1  0.91666667  0.83333333  0.58333333  1
  V  V1712  1  0.91666667  0.83333333  0.66666667  1
  V  V1713  1  0.91666667  0.83333333  0.75000000  1
  V  V1714  1  0.91666667  0.83333333  0.83333333  1
  W  W1715  1  0.91666667  0.83333333  0.91666667  1
  V  V1716  1  0.91666667  0.91666667  1.00000000  1
  V  V1717  1  0.91666667  0.91666667  0.08333333  1
  W  W1718  1  0.91666667  0.91666667  0.16666667  1
  V  V1719  1  0.91666667  0.91666667  0.25000000  1
  V  V1720  1  0.91666667  0.91666667  0.33333333  1
  V  V1721  1  0.91666667  0.91666667  0.41666667  1
  V  V1722  1  0.91666667  0.91666667  0.50000000  1
  V  V1723  1  0.91666667  0.91666667  0.58333333  1
  V  V1724  1  0.91666667  0.91666667  0.66666667  1
  V  V1725  1  0.91666667  0.91666667  0.75000000  1
  W  W1726  1  0.91666667  0.91666667  0.83333333  1
  V  V1727  1  0.91666667  0.91666667  0.91666667  1
