# generated using pymatgen
data_Zr147Ti114V3542Cr51W242
_symmetry_space_group_name_H-M   'P 1'
_cell_length_a   41.70778345
_cell_length_b   41.70778345
_cell_length_c   41.70778345
_cell_angle_alpha   109.47122063
_cell_angle_beta   109.47122063
_cell_angle_gamma   109.47122063
_symmetry_Int_Tables_number   1
_chemical_formula_structural   Zr147Ti114V3542Cr51W242
_chemical_formula_sum   'Zr147 Ti114 V3542 Cr51 W242'
_cell_volume   55850.80524800
_cell_formula_units_Z   1
loop_
 _symmetry_equiv_pos_site_id
 _symmetry_equiv_pos_as_xyz
  1  'x, y, z'
loop_
 _atom_site_type_symbol
 _atom_site_label
 _atom_site_symmetry_multiplicity
 _atom_site_fract_x
 _atom_site_fract_y
 _atom_site_fract_z
 _atom_site_occupancy
  V  V0  1  0.00000000  0.00000000  0.00000000  1
  V  V1  1  0.00000000  0.00000000  0.06250000  1
  V  V2  1  0.00000000  0.00000000  0.12500000  1
  V  V3  1  0.00000000  0.00000000  0.18750000  1
  V  V4  1  0.00000000  0.00000000  0.25000000  1
  V  V5  1  0.00000000  0.00000000  0.31250000  1
  V  V6  1  0.00000000  0.00000000  0.37500000  1
  V  V7  1  0.00000000  0.00000000  0.43750000  1
  V  V8  1  0.00000000  0.00000000  0.50000000  1
  V  V9  1  0.00000000  0.00000000  0.56250000  1
  V  V10  1  0.00000000  0.00000000  0.62500000  1
  V  V11  1  0.00000000  0.00000000  0.68750000  1
  V  V12  1  0.00000000  0.00000000  0.75000000  1
  V  V13  1  0.00000000  0.00000000  0.81250000  1
  V  V14  1  0.00000000  0.00000000  0.87500000  1
  V  V15  1  0.00000000  0.00000000  0.93750000  1
  V  V16  1  0.00000000  0.06250000  0.00000000  1
  V  V17  1  0.00000000  0.06250000  0.06250000  1
  V  V18  1  0.00000000  0.06250000  0.12500000  1
  W  W19  1  0.00000000  0.06250000  0.18750000  1
  V  V20  1  0.00000000  0.06250000  0.25000000  1
  V  V21  1  0.00000000  0.06250000  0.31250000  1
  V  V22  1  0.00000000  0.06250000  0.37500000  1
  V  V23  1  0.00000000  0.06250000  0.43750000  1
  V  V24  1  0.00000000  0.06250000  0.50000000  1
  V  V25  1  0.00000000  0.06250000  0.56250000  1
  V  V26  1  0.00000000  0.06250000  0.62500000  1
  V  V27  1  0.00000000  0.06250000  0.68750000  1
  V  V28  1  0.00000000  0.06250000  0.75000000  1
  V  V29  1  0.00000000  0.06250000  0.81250000  1
  V  V30  1  0.00000000  0.06250000  0.87500000  1
  V  V31  1  0.00000000  0.06250000  0.93750000  1
  V  V32  1  0.00000000  0.12500000  0.00000000  1
  V  V33  1  0.00000000  0.12500000  0.06250000  1
  V  V34  1  0.00000000  0.12500000  0.12500000  1
  V  V35  1  0.00000000  0.12500000  0.18750000  1
  V  V36  1  0.00000000  0.12500000  0.25000000  1
  V  V37  1  0.00000000  0.12500000  0.31250000  1
  V  V38  1  0.00000000  0.12500000  0.37500000  1
  V  V39  1  0.00000000  0.12500000  0.43750000  1
  V  V40  1  0.00000000  0.12500000  0.50000000  1
  V  V41  1  0.00000000  0.12500000  0.56250000  1
  V  V42  1  0.00000000  0.12500000  0.62500000  1
  V  V43  1  0.00000000  0.12500000  0.68750000  1
  V  V44  1  0.00000000  0.12500000  0.75000000  1
  V  V45  1  0.00000000  0.12500000  0.81250000  1
  V  V46  1  0.00000000  0.12500000  0.87500000  1
  V  V47  1  0.00000000  0.12500000  0.93750000  1
  V  V48  1  0.00000000  0.18750000  0.00000000  1
  V  V49  1  0.00000000  0.18750000  0.06250000  1
  V  V50  1  0.00000000  0.18750000  0.12500000  1
  V  V51  1  0.00000000  0.18750000  0.18750000  1
  V  V52  1  0.00000000  0.18750000  0.25000000  1
  V  V53  1  0.00000000  0.18750000  0.31250000  1
  V  V54  1  0.00000000  0.18750000  0.37500000  1
  V  V55  1  0.00000000  0.18750000  0.43750000  1
  V  V56  1  0.00000000  0.18750000  0.50000000  1
  V  V57  1  0.00000000  0.18750000  0.56250000  1
  V  V58  1  0.00000000  0.18750000  0.62500000  1
  V  V59  1  0.00000000  0.18750000  0.68750000  1
  W  W60  1  0.00000000  0.18750000  0.75000000  1
  V  V61  1  0.00000000  0.18750000  0.81250000  1
  V  V62  1  0.00000000  0.18750000  0.87500000  1
  W  W63  1  0.00000000  0.18750000  0.93750000  1
  V  V64  1  0.00000000  0.25000000  0.00000000  1
  V  V65  1  0.00000000  0.25000000  0.06250000  1
  V  V66  1  0.00000000  0.25000000  0.12500000  1
  V  V67  1  0.00000000  0.25000000  0.18750000  1
  V  V68  1  0.00000000  0.25000000  0.25000000  1
  V  V69  1  0.00000000  0.25000000  0.31250000  1
  V  V70  1  0.00000000  0.25000000  0.37500000  1
  V  V71  1  0.00000000  0.25000000  0.43750000  1
  V  V72  1  0.00000000  0.25000000  0.50000000  1
  V  V73  1  0.00000000  0.25000000  0.56250000  1
  V  V74  1  0.00000000  0.25000000  0.62500000  1
  V  V75  1  0.00000000  0.25000000  0.68750000  1
  W  W76  1  0.00000000  0.25000000  0.75000000  1
  V  V77  1  0.00000000  0.25000000  0.81250000  1
  V  V78  1  0.00000000  0.25000000  0.87500000  1
  V  V79  1  0.00000000  0.25000000  0.93750000  1
  V  V80  1  0.00000000  0.31250000  0.00000000  1
  V  V81  1  0.00000000  0.31250000  0.06250000  1
  V  V82  1  0.00000000  0.31250000  0.12500000  1
  V  V83  1  0.00000000  0.31250000  0.18750000  1
  V  V84  1  0.00000000  0.31250000  0.25000000  1
  V  V85  1  0.00000000  0.31250000  0.31250000  1
  V  V86  1  0.00000000  0.31250000  0.37500000  1
  V  V87  1  0.00000000  0.31250000  0.43750000  1
  V  V88  1  0.00000000  0.31250000  0.50000000  1
  V  V89  1  0.00000000  0.31250000  0.56250000  1
  V  V90  1  0.00000000  0.31250000  0.62500000  1
  W  W91  1  0.00000000  0.31250000  0.68750000  1
  V  V92  1  0.00000000  0.31250000  0.75000000  1
  V  V93  1  0.00000000  0.31250000  0.81250000  1
  V  V94  1  0.00000000  0.31250000  0.87500000  1
  V  V95  1  0.00000000  0.31250000  0.93750000  1
  V  V96  1  0.00000000  0.37500000  0.00000000  1
  V  V97  1  0.00000000  0.37500000  0.06250000  1
  W  W98  1  0.00000000  0.37500000  0.12500000  1
  V  V99  1  0.00000000  0.37500000  0.18750000  1
  V  V100  1  0.00000000  0.37500000  0.25000000  1
  V  V101  1  0.00000000  0.37500000  0.31250000  1
  W  W102  1  0.00000000  0.37500000  0.37500000  1
  V  V103  1  0.00000000  0.37500000  0.43750000  1
  W  W104  1  0.00000000  0.37500000  0.50000000  1
  V  V105  1  0.00000000  0.37500000  0.56250000  1
  V  V106  1  0.00000000  0.37500000  0.62500000  1
  V  V107  1  0.00000000  0.37500000  0.68750000  1
  V  V108  1  0.00000000  0.37500000  0.75000000  1
  W  W109  1  0.00000000  0.37500000  0.81250000  1
  W  W110  1  0.00000000  0.37500000  0.87500000  1
  V  V111  1  0.00000000  0.37500000  0.93750000  1
  V  V112  1  0.00000000  0.43750000  0.00000000  1
  V  V113  1  0.00000000  0.43750000  0.06250000  1
  V  V114  1  0.00000000  0.43750000  0.12500000  1
  V  V115  1  0.00000000  0.43750000  0.18750000  1
  V  V116  1  0.00000000  0.43750000  0.25000000  1
  W  W117  1  0.00000000  0.43750000  0.31250000  1
  V  V118  1  0.00000000  0.43750000  0.37500000  1
  V  V119  1  0.00000000  0.43750000  0.43750000  1
  V  V120  1  0.00000000  0.43750000  0.50000000  1
  V  V121  1  0.00000000  0.43750000  0.56250000  1
  V  V122  1  0.00000000  0.43750000  0.62500000  1
  V  V123  1  0.00000000  0.43750000  0.68750000  1
  V  V124  1  0.00000000  0.43750000  0.75000000  1
  V  V125  1  0.00000000  0.43750000  0.81250000  1
  V  V126  1  0.00000000  0.43750000  0.87500000  1
  V  V127  1  0.00000000  0.43750000  0.93750000  1
  V  V128  1  0.00000000  0.50000000  0.00000000  1
  V  V129  1  0.00000000  0.50000000  0.06250000  1
  V  V130  1  0.00000000  0.50000000  0.12500000  1
  Cr  Cr131  1  0.00000000  0.50000000  0.18750000  1
  Cr  Cr132  1  0.00000000  0.50000000  0.25000000  1
  W  W133  1  0.00000000  0.50000000  0.31250000  1
  V  V134  1  0.00000000  0.50000000  0.37500000  1
  V  V135  1  0.00000000  0.50000000  0.43750000  1
  V  V136  1  0.00000000  0.50000000  0.50000000  1
  V  V137  1  0.00000000  0.50000000  0.56250000  1
  V  V138  1  0.00000000  0.50000000  0.62500000  1
  V  V139  1  0.00000000  0.50000000  0.68750000  1
  V  V140  1  0.00000000  0.50000000  0.75000000  1
  W  W141  1  0.00000000  0.50000000  0.81250000  1
  V  V142  1  0.00000000  0.50000000  0.87500000  1
  V  V143  1  0.00000000  0.50000000  0.93750000  1
  V  V144  1  0.00000000  0.56250000  0.00000000  1
  V  V145  1  0.00000000  0.56250000  0.06250000  1
  V  V146  1  0.00000000  0.56250000  0.12500000  1
  V  V147  1  0.00000000  0.56250000  0.18750000  1
  V  V148  1  0.00000000  0.56250000  0.25000000  1
  V  V149  1  0.00000000  0.56250000  0.31250000  1
  V  V150  1  0.00000000  0.56250000  0.37500000  1
  V  V151  1  0.00000000  0.56250000  0.43750000  1
  V  V152  1  0.00000000  0.56250000  0.50000000  1
  V  V153  1  0.00000000  0.56250000  0.56250000  1
  W  W154  1  0.00000000  0.56250000  0.62500000  1
  V  V155  1  0.00000000  0.56250000  0.68750000  1
  V  V156  1  0.00000000  0.56250000  0.75000000  1
  V  V157  1  0.00000000  0.56250000  0.81250000  1
  V  V158  1  0.00000000  0.56250000  0.87500000  1
  V  V159  1  0.00000000  0.56250000  0.93750000  1
  V  V160  1  0.00000000  0.62500000  0.00000000  1
  V  V161  1  0.00000000  0.62500000  0.06250000  1
  V  V162  1  0.00000000  0.62500000  0.12500000  1
  W  W163  1  0.00000000  0.62500000  0.18750000  1
  V  V164  1  0.00000000  0.62500000  0.25000000  1
  V  V165  1  0.00000000  0.62500000  0.31250000  1
  V  V166  1  0.00000000  0.62500000  0.37500000  1
  V  V167  1  0.00000000  0.62500000  0.43750000  1
  V  V168  1  0.00000000  0.62500000  0.50000000  1
  W  W169  1  0.00000000  0.62500000  0.56250000  1
  V  V170  1  0.00000000  0.62500000  0.62500000  1
  W  W171  1  0.00000000  0.62500000  0.68750000  1
  V  V172  1  0.00000000  0.62500000  0.75000000  1
  V  V173  1  0.00000000  0.62500000  0.81250000  1
  V  V174  1  0.00000000  0.62500000  0.87500000  1
  V  V175  1  0.00000000  0.62500000  0.93750000  1
  V  V176  1  0.00000000  0.68750000  0.00000000  1
  V  V177  1  0.00000000  0.68750000  0.06250000  1
  V  V178  1  0.00000000  0.68750000  0.12500000  1
  V  V179  1  0.00000000  0.68750000  0.18750000  1
  V  V180  1  0.00000000  0.68750000  0.25000000  1
  V  V181  1  0.00000000  0.68750000  0.31250000  1
  V  V182  1  0.00000000  0.68750000  0.37500000  1
  V  V183  1  0.00000000  0.68750000  0.43750000  1
  V  V184  1  0.00000000  0.68750000  0.50000000  1
  V  V185  1  0.00000000  0.68750000  0.56250000  1
  V  V186  1  0.00000000  0.68750000  0.62500000  1
  V  V187  1  0.00000000  0.68750000  0.68750000  1
  V  V188  1  0.00000000  0.68750000  0.75000000  1
  V  V189  1  0.00000000  0.68750000  0.81250000  1
  V  V190  1  0.00000000  0.68750000  0.87500000  1
  V  V191  1  0.00000000  0.68750000  0.93750000  1
  V  V192  1  0.00000000  0.75000000  0.00000000  1
  V  V193  1  0.00000000  0.75000000  0.06250000  1
  V  V194  1  0.00000000  0.75000000  0.12500000  1
  V  V195  1  0.00000000  0.75000000  0.18750000  1
  V  V196  1  0.00000000  0.75000000  0.25000000  1
  V  V197  1  0.00000000  0.75000000  0.31250000  1
  V  V198  1  0.00000000  0.75000000  0.37500000  1
  V  V199  1  0.00000000  0.75000000  0.43750000  1
  V  V200  1  0.00000000  0.75000000  0.50000000  1
  V  V201  1  0.00000000  0.75000000  0.56250000  1
  V  V202  1  0.00000000  0.75000000  0.62500000  1
  V  V203  1  0.00000000  0.75000000  0.68750000  1
  V  V204  1  0.00000000  0.75000000  0.75000000  1
  V  V205  1  0.00000000  0.75000000  0.81250000  1
  V  V206  1  0.00000000  0.75000000  0.87500000  1
  W  W207  1  0.00000000  0.75000000  0.93750000  1
  V  V208  1  0.00000000  0.81250000  0.00000000  1
  V  V209  1  0.00000000  0.81250000  0.06250000  1
  V  V210  1  0.00000000  0.81250000  0.12500000  1
  V  V211  1  0.00000000  0.81250000  0.18750000  1
  V  V212  1  0.00000000  0.81250000  0.25000000  1
  V  V213  1  0.00000000  0.81250000  0.31250000  1
  V  V214  1  0.00000000  0.81250000  0.37500000  1
  V  V215  1  0.00000000  0.81250000  0.43750000  1
  V  V216  1  0.00000000  0.81250000  0.50000000  1
  V  V217  1  0.00000000  0.81250000  0.56250000  1
  V  V218  1  0.00000000  0.81250000  0.62500000  1
  V  V219  1  0.00000000  0.81250000  0.68750000  1
  V  V220  1  0.00000000  0.81250000  0.75000000  1
  V  V221  1  0.00000000  0.81250000  0.81250000  1
  W  W222  1  0.00000000  0.81250000  0.87500000  1
  V  V223  1  0.00000000  0.81250000  0.93750000  1
  V  V224  1  0.00000000  0.87500000  0.00000000  1
  W  W225  1  0.00000000  0.87500000  0.06250000  1
  V  V226  1  0.00000000  0.87500000  0.12500000  1
  V  V227  1  0.00000000  0.87500000  0.18750000  1
  V  V228  1  0.00000000  0.87500000  0.25000000  1
  V  V229  1  0.00000000  0.87500000  0.31250000  1
  V  V230  1  0.00000000  0.87500000  0.37500000  1
  V  V231  1  0.00000000  0.87500000  0.43750000  1
  W  W232  1  0.00000000  0.87500000  0.50000000  1
  V  V233  1  0.00000000  0.87500000  0.56250000  1
  V  V234  1  0.00000000  0.87500000  0.62500000  1
  V  V235  1  0.00000000  0.87500000  0.68750000  1
  V  V236  1  0.00000000  0.87500000  0.75000000  1
  V  V237  1  0.00000000  0.87500000  0.81250000  1
  V  V238  1  0.00000000  0.87500000  0.87500000  1
  V  V239  1  0.00000000  0.87500000  0.93750000  1
  V  V240  1  0.00000000  0.93750000  0.00000000  1
  V  V241  1  0.00000000  0.93750000  0.06250000  1
  W  W242  1  0.00000000  0.93750000  0.12500000  1
  W  W243  1  0.00000000  0.93750000  0.18750000  1
  V  V244  1  0.00000000  0.93750000  0.25000000  1
  V  V245  1  0.00000000  0.93750000  0.31250000  1
  V  V246  1  0.00000000  0.93750000  0.37500000  1
  V  V247  1  0.00000000  0.93750000  0.43750000  1
  V  V248  1  0.00000000  0.93750000  0.50000000  1
  V  V249  1  0.00000000  0.93750000  0.56250000  1
  V  V250  1  0.00000000  0.93750000  0.62500000  1
  V  V251  1  0.00000000  0.93750000  0.68750000  1
  V  V252  1  0.00000000  0.93750000  0.75000000  1
  V  V253  1  0.00000000  0.93750000  0.81250000  1
  V  V254  1  0.00000000  0.93750000  0.87500000  1
  V  V255  1  0.00000000  0.93750000  0.93750000  1
  W  W256  1  0.06250000  0.00000000  0.00000000  1
  V  V257  1  0.06250000  0.00000000  0.06250000  1
  V  V258  1  0.06250000  0.00000000  0.12500000  1
  V  V259  1  0.06250000  0.00000000  0.18750000  1
  V  V260  1  0.06250000  0.00000000  0.25000000  1
  V  V261  1  0.06250000  0.00000000  0.31250000  1
  V  V262  1  0.06250000  0.00000000  0.37500000  1
  V  V263  1  0.06250000  0.00000000  0.43750000  1
  V  V264  1  0.06250000  0.00000000  0.50000000  1
  V  V265  1  0.06250000  0.00000000  0.56250000  1
  W  W266  1  0.06250000  0.00000000  0.62500000  1
  V  V267  1  0.06250000  0.00000000  0.68750000  1
  V  V268  1  0.06250000  0.00000000  0.75000000  1
  V  V269  1  0.06250000  0.00000000  0.81250000  1
  V  V270  1  0.06250000  0.00000000  0.87500000  1
  W  W271  1  0.06250000  0.00000000  0.93750000  1
  W  W272  1  0.06250000  0.06250000  0.00000000  1
  V  V273  1  0.06250000  0.06250000  0.06250000  1
  V  V274  1  0.06250000  0.06250000  0.12500000  1
  V  V275  1  0.06250000  0.06250000  0.18750000  1
  V  V276  1  0.06250000  0.06250000  0.25000000  1
  V  V277  1  0.06250000  0.06250000  0.31250000  1
  V  V278  1  0.06250000  0.06250000  0.37500000  1
  V  V279  1  0.06250000  0.06250000  0.43750000  1
  V  V280  1  0.06250000  0.06250000  0.50000000  1
  V  V281  1  0.06250000  0.06250000  0.56250000  1
  V  V282  1  0.06250000  0.06250000  0.62500000  1
  V  V283  1  0.06250000  0.06250000  0.68750000  1
  V  V284  1  0.06250000  0.06250000  0.75000000  1
  V  V285  1  0.06250000  0.06250000  0.81250000  1
  V  V286  1  0.06250000  0.06250000  0.87500000  1
  V  V287  1  0.06250000  0.06250000  0.93750000  1
  V  V288  1  0.06250000  0.12500000  0.00000000  1
  V  V289  1  0.06250000  0.12500000  0.06250000  1
  V  V290  1  0.06250000  0.12500000  0.12500000  1
  V  V291  1  0.06250000  0.12500000  0.18750000  1
  V  V292  1  0.06250000  0.12500000  0.25000000  1
  W  W293  1  0.06250000  0.12500000  0.31250000  1
  W  W294  1  0.06250000  0.12500000  0.37500000  1
  V  V295  1  0.06250000  0.12500000  0.43750000  1
  V  V296  1  0.06250000  0.12500000  0.50000000  1
  V  V297  1  0.06250000  0.12500000  0.56250000  1
  V  V298  1  0.06250000  0.12500000  0.62500000  1
  V  V299  1  0.06250000  0.12500000  0.68750000  1
  V  V300  1  0.06250000  0.12500000  0.75000000  1
  V  V301  1  0.06250000  0.12500000  0.81250000  1
  V  V302  1  0.06250000  0.12500000  0.87500000  1
  V  V303  1  0.06250000  0.12500000  0.93750000  1
  V  V304  1  0.06250000  0.18750000  0.00000000  1
  V  V305  1  0.06250000  0.18750000  0.06250000  1
  V  V306  1  0.06250000  0.18750000  0.12500000  1
  V  V307  1  0.06250000  0.18750000  0.18750000  1
  V  V308  1  0.06250000  0.18750000  0.25000000  1
  W  W309  1  0.06250000  0.18750000  0.31250000  1
  V  V310  1  0.06250000  0.18750000  0.37500000  1
  V  V311  1  0.06250000  0.18750000  0.43750000  1
  V  V312  1  0.06250000  0.18750000  0.50000000  1
  V  V313  1  0.06250000  0.18750000  0.56250000  1
  W  W314  1  0.06250000  0.18750000  0.62500000  1
  V  V315  1  0.06250000  0.18750000  0.68750000  1
  V  V316  1  0.06250000  0.18750000  0.75000000  1
  V  V317  1  0.06250000  0.18750000  0.81250000  1
  V  V318  1  0.06250000  0.18750000  0.87500000  1
  V  V319  1  0.06250000  0.18750000  0.93750000  1
  V  V320  1  0.06250000  0.25000000  0.00000000  1
  V  V321  1  0.06250000  0.25000000  0.06250000  1
  V  V322  1  0.06250000  0.25000000  0.12500000  1
  V  V323  1  0.06250000  0.25000000  0.18750000  1
  V  V324  1  0.06250000  0.25000000  0.25000000  1
  V  V325  1  0.06250000  0.25000000  0.31250000  1
  V  V326  1  0.06250000  0.25000000  0.37500000  1
  V  V327  1  0.06250000  0.25000000  0.43750000  1
  V  V328  1  0.06250000  0.25000000  0.50000000  1
  V  V329  1  0.06250000  0.25000000  0.56250000  1
  V  V330  1  0.06250000  0.25000000  0.62500000  1
  V  V331  1  0.06250000  0.25000000  0.68750000  1
  V  V332  1  0.06250000  0.25000000  0.75000000  1
  V  V333  1  0.06250000  0.25000000  0.81250000  1
  V  V334  1  0.06250000  0.25000000  0.87500000  1
  V  V335  1  0.06250000  0.25000000  0.93750000  1
  V  V336  1  0.06250000  0.31250000  0.00000000  1
  V  V337  1  0.06250000  0.31250000  0.06250000  1
  V  V338  1  0.06250000  0.31250000  0.12500000  1
  V  V339  1  0.06250000  0.31250000  0.18750000  1
  V  V340  1  0.06250000  0.31250000  0.25000000  1
  V  V341  1  0.06250000  0.31250000  0.31250000  1
  V  V342  1  0.06250000  0.31250000  0.37500000  1
  V  V343  1  0.06250000  0.31250000  0.43750000  1
  V  V344  1  0.06250000  0.31250000  0.50000000  1
  V  V345  1  0.06250000  0.31250000  0.56250000  1
  V  V346  1  0.06250000  0.31250000  0.62500000  1
  V  V347  1  0.06250000  0.31250000  0.68750000  1
  V  V348  1  0.06250000  0.31250000  0.75000000  1
  V  V349  1  0.06250000  0.31250000  0.81250000  1
  V  V350  1  0.06250000  0.31250000  0.87500000  1
  V  V351  1  0.06250000  0.31250000  0.93750000  1
  V  V352  1  0.06250000  0.37500000  0.00000000  1
  V  V353  1  0.06250000  0.37500000  0.06250000  1
  V  V354  1  0.06250000  0.37500000  0.12500000  1
  V  V355  1  0.06250000  0.37500000  0.18750000  1
  V  V356  1  0.06250000  0.37500000  0.25000000  1
  V  V357  1  0.06250000  0.37500000  0.31250000  1
  V  V358  1  0.06250000  0.37500000  0.37500000  1
  V  V359  1  0.06250000  0.37500000  0.43750000  1
  V  V360  1  0.06250000  0.37500000  0.50000000  1
  V  V361  1  0.06250000  0.37500000  0.56250000  1
  V  V362  1  0.06250000  0.37500000  0.62500000  1
  V  V363  1  0.06250000  0.37500000  0.68750000  1
  V  V364  1  0.06250000  0.37500000  0.75000000  1
  V  V365  1  0.06250000  0.37500000  0.81250000  1
  V  V366  1  0.06250000  0.37500000  0.87500000  1
  V  V367  1  0.06250000  0.37500000  0.93750000  1
  V  V368  1  0.06250000  0.43750000  0.00000000  1
  V  V369  1  0.06250000  0.43750000  0.06250000  1
  V  V370  1  0.06250000  0.43750000  0.12500000  1
  V  V371  1  0.06250000  0.43750000  0.18750000  1
  V  V372  1  0.06250000  0.43750000  0.25000000  1
  V  V373  1  0.06250000  0.43750000  0.31250000  1
  V  V374  1  0.06250000  0.43750000  0.37500000  1
  V  V375  1  0.06250000  0.43750000  0.43750000  1
  V  V376  1  0.06250000  0.43750000  0.50000000  1
  W  W377  1  0.06250000  0.43750000  0.56250000  1
  V  V378  1  0.06250000  0.43750000  0.62500000  1
  V  V379  1  0.06250000  0.43750000  0.68750000  1
  V  V380  1  0.06250000  0.43750000  0.75000000  1
  V  V381  1  0.06250000  0.43750000  0.81250000  1
  V  V382  1  0.06250000  0.43750000  0.87500000  1
  V  V383  1  0.06250000  0.43750000  0.93750000  1
  V  V384  1  0.06250000  0.50000000  0.00000000  1
  V  V385  1  0.06250000  0.50000000  0.06250000  1
  V  V386  1  0.06250000  0.50000000  0.12500000  1
  V  V387  1  0.06250000  0.50000000  0.18750000  1
  V  V388  1  0.06250000  0.50000000  0.25000000  1
  V  V389  1  0.06250000  0.50000000  0.31250000  1
  V  V390  1  0.06250000  0.50000000  0.37500000  1
  V  V391  1  0.06250000  0.50000000  0.43750000  1
  V  V392  1  0.06250000  0.50000000  0.50000000  1
  V  V393  1  0.06250000  0.50000000  0.56250000  1
  V  V394  1  0.06250000  0.50000000  0.62500000  1
  V  V395  1  0.06250000  0.50000000  0.68750000  1
  V  V396  1  0.06250000  0.50000000  0.75000000  1
  V  V397  1  0.06250000  0.50000000  0.81250000  1
  V  V398  1  0.06250000  0.50000000  0.87500000  1
  V  V399  1  0.06250000  0.50000000  0.93750000  1
  V  V400  1  0.06250000  0.56250000  0.00000000  1
  V  V401  1  0.06250000  0.56250000  0.06250000  1
  V  V402  1  0.06250000  0.56250000  0.12500000  1
  V  V403  1  0.06250000  0.56250000  0.18750000  1
  V  V404  1  0.06250000  0.56250000  0.25000000  1
  V  V405  1  0.06250000  0.56250000  0.31250000  1
  V  V406  1  0.06250000  0.56250000  0.37500000  1
  V  V407  1  0.06250000  0.56250000  0.43750000  1
  V  V408  1  0.06250000  0.56250000  0.50000000  1
  V  V409  1  0.06250000  0.56250000  0.56250000  1
  V  V410  1  0.06250000  0.56250000  0.62500000  1
  V  V411  1  0.06250000  0.56250000  0.68750000  1
  V  V412  1  0.06250000  0.56250000  0.75000000  1
  V  V413  1  0.06250000  0.56250000  0.81250000  1
  V  V414  1  0.06250000  0.56250000  0.87500000  1
  V  V415  1  0.06250000  0.56250000  0.93750000  1
  V  V416  1  0.06250000  0.62500000  0.00000000  1
  V  V417  1  0.06250000  0.62500000  0.06250000  1
  V  V418  1  0.06250000  0.62500000  0.12500000  1
  V  V419  1  0.06250000  0.62500000  0.18750000  1
  V  V420  1  0.06250000  0.62500000  0.25000000  1
  V  V421  1  0.06250000  0.62500000  0.31250000  1
  V  V422  1  0.06250000  0.62500000  0.37500000  1
  V  V423  1  0.06250000  0.62500000  0.43750000  1
  V  V424  1  0.06250000  0.62500000  0.50000000  1
  V  V425  1  0.06250000  0.62500000  0.56250000  1
  V  V426  1  0.06250000  0.62500000  0.62500000  1
  V  V427  1  0.06250000  0.62500000  0.68750000  1
  V  V428  1  0.06250000  0.62500000  0.75000000  1
  V  V429  1  0.06250000  0.62500000  0.81250000  1
  V  V430  1  0.06250000  0.62500000  0.87500000  1
  V  V431  1  0.06250000  0.62500000  0.93750000  1
  V  V432  1  0.06250000  0.68750000  0.00000000  1
  V  V433  1  0.06250000  0.68750000  0.06250000  1
  V  V434  1  0.06250000  0.68750000  0.12500000  1
  V  V435  1  0.06250000  0.68750000  0.18750000  1
  V  V436  1  0.06250000  0.68750000  0.25000000  1
  V  V437  1  0.06250000  0.68750000  0.31250000  1
  V  V438  1  0.06250000  0.68750000  0.37500000  1
  V  V439  1  0.06250000  0.68750000  0.43750000  1
  V  V440  1  0.06250000  0.68750000  0.50000000  1
  V  V441  1  0.06250000  0.68750000  0.56250000  1
  V  V442  1  0.06250000  0.68750000  0.62500000  1
  V  V443  1  0.06250000  0.68750000  0.68750000  1
  V  V444  1  0.06250000  0.68750000  0.75000000  1
  V  V445  1  0.06250000  0.68750000  0.81250000  1
  V  V446  1  0.06250000  0.68750000  0.87500000  1
  V  V447  1  0.06250000  0.68750000  0.93750000  1
  V  V448  1  0.06250000  0.75000000  0.00000000  1
  V  V449  1  0.06250000  0.75000000  0.06250000  1
  V  V450  1  0.06250000  0.75000000  0.12500000  1
  V  V451  1  0.06250000  0.75000000  0.18750000  1
  V  V452  1  0.06250000  0.75000000  0.25000000  1
  V  V453  1  0.06250000  0.75000000  0.31250000  1
  V  V454  1  0.06250000  0.75000000  0.37500000  1
  V  V455  1  0.06250000  0.75000000  0.43750000  1
  V  V456  1  0.06250000  0.75000000  0.50000000  1
  V  V457  1  0.06250000  0.75000000  0.56250000  1
  V  V458  1  0.06250000  0.75000000  0.62500000  1
  V  V459  1  0.06250000  0.75000000  0.68750000  1
  V  V460  1  0.06250000  0.75000000  0.75000000  1
  V  V461  1  0.06250000  0.75000000  0.81250000  1
  V  V462  1  0.06250000  0.75000000  0.87500000  1
  V  V463  1  0.06250000  0.75000000  0.93750000  1
  V  V464  1  0.06250000  0.81250000  0.00000000  1
  V  V465  1  0.06250000  0.81250000  0.06250000  1
  V  V466  1  0.06250000  0.81250000  0.12500000  1
  V  V467  1  0.06250000  0.81250000  0.18750000  1
  V  V468  1  0.06250000  0.81250000  0.25000000  1
  V  V469  1  0.06250000  0.81250000  0.31250000  1
  V  V470  1  0.06250000  0.81250000  0.37500000  1
  V  V471  1  0.06250000  0.81250000  0.43750000  1
  V  V472  1  0.06250000  0.81250000  0.50000000  1
  V  V473  1  0.06250000  0.81250000  0.56250000  1
  V  V474  1  0.06250000  0.81250000  0.62500000  1
  V  V475  1  0.06250000  0.81250000  0.68750000  1
  V  V476  1  0.06250000  0.81250000  0.75000000  1
  V  V477  1  0.06250000  0.81250000  0.81250000  1
  V  V478  1  0.06250000  0.81250000  0.87500000  1
  V  V479  1  0.06250000  0.81250000  0.93750000  1
  V  V480  1  0.06250000  0.87500000  0.00000000  1
  V  V481  1  0.06250000  0.87500000  0.06250000  1
  V  V482  1  0.06250000  0.87500000  0.12500000  1
  V  V483  1  0.06250000  0.87500000  0.18750000  1
  V  V484  1  0.06250000  0.87500000  0.25000000  1
  V  V485  1  0.06250000  0.87500000  0.31250000  1
  V  V486  1  0.06250000  0.87500000  0.37500000  1
  V  V487  1  0.06250000  0.87500000  0.43750000  1
  V  V488  1  0.06250000  0.87500000  0.50000000  1
  V  V489  1  0.06250000  0.87500000  0.56250000  1
  V  V490  1  0.06250000  0.87500000  0.62500000  1
  V  V491  1  0.06250000  0.87500000  0.68750000  1
  V  V492  1  0.06250000  0.87500000  0.75000000  1
  V  V493  1  0.06250000  0.87500000  0.81250000  1
  V  V494  1  0.06250000  0.87500000  0.87500000  1
  V  V495  1  0.06250000  0.87500000  0.93750000  1
  V  V496  1  0.06250000  0.93750000  0.00000000  1
  V  V497  1  0.06250000  0.93750000  0.06250000  1
  V  V498  1  0.06250000  0.93750000  0.12500000  1
  V  V499  1  0.06250000  0.93750000  0.18750000  1
  V  V500  1  0.06250000  0.93750000  0.25000000  1
  V  V501  1  0.06250000  0.93750000  0.31250000  1
  V  V502  1  0.06250000  0.93750000  0.37500000  1
  W  W503  1  0.06250000  0.93750000  0.43750000  1
  V  V504  1  0.06250000  0.93750000  0.50000000  1
  V  V505  1  0.06250000  0.93750000  0.56250000  1
  V  V506  1  0.06250000  0.93750000  0.62500000  1
  V  V507  1  0.06250000  0.93750000  0.68750000  1
  V  V508  1  0.06250000  0.93750000  0.75000000  1
  V  V509  1  0.06250000  0.93750000  0.81250000  1
  V  V510  1  0.06250000  0.93750000  0.87500000  1
  V  V511  1  0.06250000  0.93750000  0.93750000  1
  V  V512  1  0.12500000  0.00000000  0.00000000  1
  V  V513  1  0.12500000  0.00000000  0.06250000  1
  V  V514  1  0.12500000  0.00000000  0.12500000  1
  V  V515  1  0.12500000  0.00000000  0.18750000  1
  V  V516  1  0.12500000  0.00000000  0.25000000  1
  V  V517  1  0.12500000  0.00000000  0.31250000  1
  V  V518  1  0.12500000  0.00000000  0.37500000  1
  W  W519  1  0.12500000  0.00000000  0.43750000  1
  V  V520  1  0.12500000  0.00000000  0.50000000  1
  V  V521  1  0.12500000  0.00000000  0.56250000  1
  V  V522  1  0.12500000  0.00000000  0.62500000  1
  V  V523  1  0.12500000  0.00000000  0.68750000  1
  V  V524  1  0.12500000  0.00000000  0.75000000  1
  V  V525  1  0.12500000  0.00000000  0.81250000  1
  W  W526  1  0.12500000  0.00000000  0.87500000  1
  V  V527  1  0.12500000  0.00000000  0.93750000  1
  V  V528  1  0.12500000  0.06250000  0.00000000  1
  V  V529  1  0.12500000  0.06250000  0.06250000  1
  V  V530  1  0.12500000  0.06250000  0.12500000  1
  V  V531  1  0.12500000  0.06250000  0.18750000  1
  V  V532  1  0.12500000  0.06250000  0.25000000  1
  V  V533  1  0.12500000  0.06250000  0.31250000  1
  V  V534  1  0.12500000  0.06250000  0.37500000  1
  V  V535  1  0.12500000  0.06250000  0.43750000  1
  V  V536  1  0.12500000  0.06250000  0.50000000  1
  V  V537  1  0.12500000  0.06250000  0.56250000  1
  V  V538  1  0.12500000  0.06250000  0.62500000  1
  V  V539  1  0.12500000  0.06250000  0.68750000  1
  V  V540  1  0.12500000  0.06250000  0.75000000  1
  V  V541  1  0.12500000  0.06250000  0.81250000  1
  V  V542  1  0.12500000  0.06250000  0.87500000  1
  V  V543  1  0.12500000  0.06250000  0.93750000  1
  V  V544  1  0.12500000  0.12500000  0.00000000  1
  V  V545  1  0.12500000  0.12500000  0.06250000  1
  V  V546  1  0.12500000  0.12500000  0.12500000  1
  V  V547  1  0.12500000  0.12500000  0.18750000  1
  V  V548  1  0.12500000  0.12500000  0.25000000  1
  V  V549  1  0.12500000  0.12500000  0.31250000  1
  V  V550  1  0.12500000  0.12500000  0.37500000  1
  V  V551  1  0.12500000  0.12500000  0.43750000  1
  V  V552  1  0.12500000  0.12500000  0.50000000  1
  V  V553  1  0.12500000  0.12500000  0.56250000  1
  V  V554  1  0.12500000  0.12500000  0.62500000  1
  V  V555  1  0.12500000  0.12500000  0.68750000  1
  V  V556  1  0.12500000  0.12500000  0.75000000  1
  V  V557  1  0.12500000  0.12500000  0.81250000  1
  V  V558  1  0.12500000  0.12500000  0.87500000  1
  V  V559  1  0.12500000  0.12500000  0.93750000  1
  W  W560  1  0.12500000  0.18750000  0.00000000  1
  V  V561  1  0.12500000  0.18750000  0.06250000  1
  W  W562  1  0.12500000  0.18750000  0.12500000  1
  V  V563  1  0.12500000  0.18750000  0.18750000  1
  V  V564  1  0.12500000  0.18750000  0.25000000  1
  V  V565  1  0.12500000  0.18750000  0.31250000  1
  V  V566  1  0.12500000  0.18750000  0.37500000  1
  V  V567  1  0.12500000  0.18750000  0.43750000  1
  V  V568  1  0.12500000  0.18750000  0.50000000  1
  W  W569  1  0.12500000  0.18750000  0.56250000  1
  V  V570  1  0.12500000  0.18750000  0.62500000  1
  V  V571  1  0.12500000  0.18750000  0.68750000  1
  V  V572  1  0.12500000  0.18750000  0.75000000  1
  V  V573  1  0.12500000  0.18750000  0.81250000  1
  V  V574  1  0.12500000  0.18750000  0.87500000  1
  V  V575  1  0.12500000  0.18750000  0.93750000  1
  V  V576  1  0.12500000  0.25000000  0.00000000  1
  V  V577  1  0.12500000  0.25000000  0.06250000  1
  V  V578  1  0.12500000  0.25000000  0.12500000  1
  W  W579  1  0.12500000  0.25000000  0.18750000  1
  V  V580  1  0.12500000  0.25000000  0.25000000  1
  W  W581  1  0.12500000  0.25000000  0.31250000  1
  V  V582  1  0.12500000  0.25000000  0.37500000  1
  V  V583  1  0.12500000  0.25000000  0.43750000  1
  V  V584  1  0.12500000  0.25000000  0.50000000  1
  V  V585  1  0.12500000  0.25000000  0.56250000  1
  V  V586  1  0.12500000  0.25000000  0.62500000  1
  V  V587  1  0.12500000  0.25000000  0.68750000  1
  V  V588  1  0.12500000  0.25000000  0.75000000  1
  V  V589  1  0.12500000  0.25000000  0.81250000  1
  V  V590  1  0.12500000  0.25000000  0.87500000  1
  V  V591  1  0.12500000  0.25000000  0.93750000  1
  V  V592  1  0.12500000  0.31250000  0.00000000  1
  V  V593  1  0.12500000  0.31250000  0.06250000  1
  V  V594  1  0.12500000  0.31250000  0.12500000  1
  V  V595  1  0.12500000  0.31250000  0.18750000  1
  V  V596  1  0.12500000  0.31250000  0.25000000  1
  V  V597  1  0.12500000  0.31250000  0.31250000  1
  V  V598  1  0.12500000  0.31250000  0.37500000  1
  V  V599  1  0.12500000  0.31250000  0.43750000  1
  V  V600  1  0.12500000  0.31250000  0.50000000  1
  V  V601  1  0.12500000  0.31250000  0.56250000  1
  W  W602  1  0.12500000  0.31250000  0.62500000  1
  V  V603  1  0.12500000  0.31250000  0.68750000  1
  V  V604  1  0.12500000  0.31250000  0.75000000  1
  V  V605  1  0.12500000  0.31250000  0.81250000  1
  V  V606  1  0.12500000  0.31250000  0.87500000  1
  V  V607  1  0.12500000  0.31250000  0.93750000  1
  V  V608  1  0.12500000  0.37500000  0.00000000  1
  V  V609  1  0.12500000  0.37500000  0.06250000  1
  V  V610  1  0.12500000  0.37500000  0.12500000  1
  V  V611  1  0.12500000  0.37500000  0.18750000  1
  V  V612  1  0.12500000  0.37500000  0.25000000  1
  V  V613  1  0.12500000  0.37500000  0.31250000  1
  V  V614  1  0.12500000  0.37500000  0.37500000  1
  V  V615  1  0.12500000  0.37500000  0.43750000  1
  V  V616  1  0.12500000  0.37500000  0.50000000  1
  V  V617  1  0.12500000  0.37500000  0.56250000  1
  V  V618  1  0.12500000  0.37500000  0.62500000  1
  V  V619  1  0.12500000  0.37500000  0.68750000  1
  V  V620  1  0.12500000  0.37500000  0.75000000  1
  V  V621  1  0.12500000  0.37500000  0.81250000  1
  V  V622  1  0.12500000  0.37500000  0.87500000  1
  V  V623  1  0.12500000  0.37500000  0.93750000  1
  V  V624  1  0.12500000  0.43750000  0.00000000  1
  V  V625  1  0.12500000  0.43750000  0.06250000  1
  V  V626  1  0.12500000  0.43750000  0.12500000  1
  V  V627  1  0.12500000  0.43750000  0.18750000  1
  Cr  Cr628  1  0.12500000  0.43750000  0.25000000  1
  Cr  Cr629  1  0.12500000  0.43750000  0.31250000  1
  V  V630  1  0.12500000  0.43750000  0.37500000  1
  W  W631  1  0.12500000  0.43750000  0.43750000  1
  V  V632  1  0.12500000  0.43750000  0.50000000  1
  V  V633  1  0.12500000  0.43750000  0.56250000  1
  W  W634  1  0.12500000  0.43750000  0.62500000  1
  V  V635  1  0.12500000  0.43750000  0.68750000  1
  V  V636  1  0.12500000  0.43750000  0.75000000  1
  V  V637  1  0.12500000  0.43750000  0.81250000  1
  V  V638  1  0.12500000  0.43750000  0.87500000  1
  V  V639  1  0.12500000  0.43750000  0.93750000  1
  V  V640  1  0.12500000  0.50000000  0.00000000  1
  V  V641  1  0.12500000  0.50000000  0.06250000  1
  V  V642  1  0.12500000  0.50000000  0.12500000  1
  V  V643  1  0.12500000  0.50000000  0.18750000  1
  V  V644  1  0.12500000  0.50000000  0.25000000  1
  V  V645  1  0.12500000  0.50000000  0.31250000  1
  V  V646  1  0.12500000  0.50000000  0.37500000  1
  V  V647  1  0.12500000  0.50000000  0.43750000  1
  V  V648  1  0.12500000  0.50000000  0.50000000  1
  V  V649  1  0.12500000  0.50000000  0.56250000  1
  V  V650  1  0.12500000  0.50000000  0.62500000  1
  V  V651  1  0.12500000  0.50000000  0.68750000  1
  V  V652  1  0.12500000  0.50000000  0.75000000  1
  V  V653  1  0.12500000  0.50000000  0.81250000  1
  V  V654  1  0.12500000  0.50000000  0.87500000  1
  V  V655  1  0.12500000  0.50000000  0.93750000  1
  V  V656  1  0.12500000  0.56250000  0.00000000  1
  V  V657  1  0.12500000  0.56250000  0.06250000  1
  V  V658  1  0.12500000  0.56250000  0.12500000  1
  V  V659  1  0.12500000  0.56250000  0.18750000  1
  V  V660  1  0.12500000  0.56250000  0.25000000  1
  V  V661  1  0.12500000  0.56250000  0.31250000  1
  V  V662  1  0.12500000  0.56250000  0.37500000  1
  W  W663  1  0.12500000  0.56250000  0.43750000  1
  V  V664  1  0.12500000  0.56250000  0.50000000  1
  V  V665  1  0.12500000  0.56250000  0.56250000  1
  V  V666  1  0.12500000  0.56250000  0.62500000  1
  V  V667  1  0.12500000  0.56250000  0.68750000  1
  V  V668  1  0.12500000  0.56250000  0.75000000  1
  V  V669  1  0.12500000  0.56250000  0.81250000  1
  V  V670  1  0.12500000  0.56250000  0.87500000  1
  V  V671  1  0.12500000  0.56250000  0.93750000  1
  V  V672  1  0.12500000  0.62500000  0.00000000  1
  V  V673  1  0.12500000  0.62500000  0.06250000  1
  V  V674  1  0.12500000  0.62500000  0.12500000  1
  V  V675  1  0.12500000  0.62500000  0.18750000  1
  V  V676  1  0.12500000  0.62500000  0.25000000  1
  V  V677  1  0.12500000  0.62500000  0.31250000  1
  V  V678  1  0.12500000  0.62500000  0.37500000  1
  V  V679  1  0.12500000  0.62500000  0.43750000  1
  V  V680  1  0.12500000  0.62500000  0.50000000  1
  V  V681  1  0.12500000  0.62500000  0.56250000  1
  V  V682  1  0.12500000  0.62500000  0.62500000  1
  V  V683  1  0.12500000  0.62500000  0.68750000  1
  V  V684  1  0.12500000  0.62500000  0.75000000  1
  W  W685  1  0.12500000  0.62500000  0.81250000  1
  W  W686  1  0.12500000  0.62500000  0.87500000  1
  W  W687  1  0.12500000  0.62500000  0.93750000  1
  V  V688  1  0.12500000  0.68750000  0.00000000  1
  V  V689  1  0.12500000  0.68750000  0.06250000  1
  V  V690  1  0.12500000  0.68750000  0.12500000  1
  V  V691  1  0.12500000  0.68750000  0.18750000  1
  V  V692  1  0.12500000  0.68750000  0.25000000  1
  V  V693  1  0.12500000  0.68750000  0.31250000  1
  Cr  Cr694  1  0.12500000  0.68750000  0.37500000  1
  V  V695  1  0.12500000  0.68750000  0.43750000  1
  V  V696  1  0.12500000  0.68750000  0.50000000  1
  V  V697  1  0.12500000  0.68750000  0.56250000  1
  V  V698  1  0.12500000  0.68750000  0.62500000  1
  V  V699  1  0.12500000  0.68750000  0.68750000  1
  V  V700  1  0.12500000  0.68750000  0.75000000  1
  V  V701  1  0.12500000  0.68750000  0.81250000  1
  V  V702  1  0.12500000  0.68750000  0.87500000  1
  V  V703  1  0.12500000  0.68750000  0.93750000  1
  V  V704  1  0.12500000  0.75000000  0.00000000  1
  V  V705  1  0.12500000  0.75000000  0.06250000  1
  V  V706  1  0.12500000  0.75000000  0.12500000  1
  Cr  Cr707  1  0.12500000  0.75000000  0.18750000  1
  V  V708  1  0.12500000  0.75000000  0.25000000  1
  V  V709  1  0.12500000  0.75000000  0.31250000  1
  V  V710  1  0.12500000  0.75000000  0.37500000  1
  V  V711  1  0.12500000  0.75000000  0.43750000  1
  W  W712  1  0.12500000  0.75000000  0.50000000  1
  W  W713  1  0.12500000  0.75000000  0.56250000  1
  V  V714  1  0.12500000  0.75000000  0.62500000  1
  V  V715  1  0.12500000  0.75000000  0.68750000  1
  V  V716  1  0.12500000  0.75000000  0.75000000  1
  V  V717  1  0.12500000  0.75000000  0.81250000  1
  V  V718  1  0.12500000  0.75000000  0.87500000  1
  V  V719  1  0.12500000  0.75000000  0.93750000  1
  V  V720  1  0.12500000  0.81250000  0.00000000  1
  V  V721  1  0.12500000  0.81250000  0.06250000  1
  V  V722  1  0.12500000  0.81250000  0.12500000  1
  V  V723  1  0.12500000  0.81250000  0.18750000  1
  V  V724  1  0.12500000  0.81250000  0.25000000  1
  V  V725  1  0.12500000  0.81250000  0.31250000  1
  V  V726  1  0.12500000  0.81250000  0.37500000  1
  V  V727  1  0.12500000  0.81250000  0.43750000  1
  V  V728  1  0.12500000  0.81250000  0.50000000  1
  V  V729  1  0.12500000  0.81250000  0.56250000  1
  V  V730  1  0.12500000  0.81250000  0.62500000  1
  V  V731  1  0.12500000  0.81250000  0.68750000  1
  V  V732  1  0.12500000  0.81250000  0.75000000  1
  V  V733  1  0.12500000  0.81250000  0.81250000  1
  V  V734  1  0.12500000  0.81250000  0.87500000  1
  V  V735  1  0.12500000  0.81250000  0.93750000  1
  V  V736  1  0.12500000  0.87500000  0.00000000  1
  V  V737  1  0.12500000  0.87500000  0.06250000  1
  V  V738  1  0.12500000  0.87500000  0.12500000  1
  V  V739  1  0.12500000  0.87500000  0.18750000  1
  V  V740  1  0.12500000  0.87500000  0.25000000  1
  V  V741  1  0.12500000  0.87500000  0.31250000  1
  V  V742  1  0.12500000  0.87500000  0.37500000  1
  V  V743  1  0.12500000  0.87500000  0.43750000  1
  V  V744  1  0.12500000  0.87500000  0.50000000  1
  V  V745  1  0.12500000  0.87500000  0.56250000  1
  V  V746  1  0.12500000  0.87500000  0.62500000  1
  V  V747  1  0.12500000  0.87500000  0.68750000  1
  V  V748  1  0.12500000  0.87500000  0.75000000  1
  V  V749  1  0.12500000  0.87500000  0.81250000  1
  V  V750  1  0.12500000  0.87500000  0.87500000  1
  V  V751  1  0.12500000  0.87500000  0.93750000  1
  V  V752  1  0.12500000  0.93750000  0.00000000  1
  V  V753  1  0.12500000  0.93750000  0.06250000  1
  W  W754  1  0.12500000  0.93750000  0.12500000  1
  V  V755  1  0.12500000  0.93750000  0.18750000  1
  V  V756  1  0.12500000  0.93750000  0.25000000  1
  V  V757  1  0.12500000  0.93750000  0.31250000  1
  V  V758  1  0.12500000  0.93750000  0.37500000  1
  V  V759  1  0.12500000  0.93750000  0.43750000  1
  V  V760  1  0.12500000  0.93750000  0.50000000  1
  V  V761  1  0.12500000  0.93750000  0.56250000  1
  V  V762  1  0.12500000  0.93750000  0.62500000  1
  V  V763  1  0.12500000  0.93750000  0.68750000  1
  V  V764  1  0.12500000  0.93750000  0.75000000  1
  V  V765  1  0.12500000  0.93750000  0.81250000  1
  V  V766  1  0.12500000  0.93750000  0.87500000  1
  W  W767  1  0.12500000  0.93750000  0.93750000  1
  V  V768  1  0.18750000  0.00000000  0.00000000  1
  V  V769  1  0.18750000  0.00000000  0.06250000  1
  V  V770  1  0.18750000  0.00000000  0.12500000  1
  V  V771  1  0.18750000  0.00000000  0.18750000  1
  V  V772  1  0.18750000  0.00000000  0.25000000  1
  V  V773  1  0.18750000  0.00000000  0.31250000  1
  W  W774  1  0.18750000  0.00000000  0.37500000  1
  V  V775  1  0.18750000  0.00000000  0.43750000  1
  V  V776  1  0.18750000  0.00000000  0.50000000  1
  V  V777  1  0.18750000  0.00000000  0.56250000  1
  V  V778  1  0.18750000  0.00000000  0.62500000  1
  V  V779  1  0.18750000  0.00000000  0.68750000  1
  V  V780  1  0.18750000  0.00000000  0.75000000  1
  V  V781  1  0.18750000  0.00000000  0.81250000  1
  V  V782  1  0.18750000  0.00000000  0.87500000  1
  V  V783  1  0.18750000  0.00000000  0.93750000  1
  V  V784  1  0.18750000  0.06250000  0.00000000  1
  V  V785  1  0.18750000  0.06250000  0.06250000  1
  V  V786  1  0.18750000  0.06250000  0.12500000  1
  V  V787  1  0.18750000  0.06250000  0.18750000  1
  V  V788  1  0.18750000  0.06250000  0.25000000  1
  V  V789  1  0.18750000  0.06250000  0.31250000  1
  V  V790  1  0.18750000  0.06250000  0.37500000  1
  V  V791  1  0.18750000  0.06250000  0.43750000  1
  V  V792  1  0.18750000  0.06250000  0.50000000  1
  V  V793  1  0.18750000  0.06250000  0.56250000  1
  V  V794  1  0.18750000  0.06250000  0.62500000  1
  V  V795  1  0.18750000  0.06250000  0.68750000  1
  V  V796  1  0.18750000  0.06250000  0.75000000  1
  V  V797  1  0.18750000  0.06250000  0.81250000  1
  V  V798  1  0.18750000  0.06250000  0.87500000  1
  W  W799  1  0.18750000  0.06250000  0.93750000  1
  V  V800  1  0.18750000  0.12500000  0.00000000  1
  V  V801  1  0.18750000  0.12500000  0.06250000  1
  V  V802  1  0.18750000  0.12500000  0.12500000  1
  V  V803  1  0.18750000  0.12500000  0.18750000  1
  V  V804  1  0.18750000  0.12500000  0.25000000  1
  V  V805  1  0.18750000  0.12500000  0.31250000  1
  V  V806  1  0.18750000  0.12500000  0.37500000  1
  V  V807  1  0.18750000  0.12500000  0.43750000  1
  V  V808  1  0.18750000  0.12500000  0.50000000  1
  V  V809  1  0.18750000  0.12500000  0.56250000  1
  V  V810  1  0.18750000  0.12500000  0.62500000  1
  V  V811  1  0.18750000  0.12500000  0.68750000  1
  V  V812  1  0.18750000  0.12500000  0.75000000  1
  V  V813  1  0.18750000  0.12500000  0.81250000  1
  V  V814  1  0.18750000  0.12500000  0.87500000  1
  V  V815  1  0.18750000  0.12500000  0.93750000  1
  W  W816  1  0.18750000  0.18750000  0.00000000  1
  V  V817  1  0.18750000  0.18750000  0.06250000  1
  V  V818  1  0.18750000  0.18750000  0.12500000  1
  V  V819  1  0.18750000  0.18750000  0.18750000  1
  V  V820  1  0.18750000  0.18750000  0.25000000  1
  V  V821  1  0.18750000  0.18750000  0.31250000  1
  V  V822  1  0.18750000  0.18750000  0.37500000  1
  V  V823  1  0.18750000  0.18750000  0.43750000  1
  V  V824  1  0.18750000  0.18750000  0.50000000  1
  V  V825  1  0.18750000  0.18750000  0.56250000  1
  V  V826  1  0.18750000  0.18750000  0.62500000  1
  V  V827  1  0.18750000  0.18750000  0.68750000  1
  V  V828  1  0.18750000  0.18750000  0.75000000  1
  V  V829  1  0.18750000  0.18750000  0.81250000  1
  V  V830  1  0.18750000  0.18750000  0.87500000  1
  V  V831  1  0.18750000  0.18750000  0.93750000  1
  V  V832  1  0.18750000  0.25000000  0.00000000  1
  W  W833  1  0.18750000  0.25000000  0.06250000  1
  V  V834  1  0.18750000  0.25000000  0.12500000  1
  V  V835  1  0.18750000  0.25000000  0.18750000  1
  V  V836  1  0.18750000  0.25000000  0.25000000  1
  V  V837  1  0.18750000  0.25000000  0.31250000  1
  V  V838  1  0.18750000  0.25000000  0.37500000  1
  V  V839  1  0.18750000  0.25000000  0.43750000  1
  V  V840  1  0.18750000  0.25000000  0.50000000  1
  V  V841  1  0.18750000  0.25000000  0.56250000  1
  V  V842  1  0.18750000  0.25000000  0.62500000  1
  V  V843  1  0.18750000  0.25000000  0.68750000  1
  V  V844  1  0.18750000  0.25000000  0.75000000  1
  V  V845  1  0.18750000  0.25000000  0.81250000  1
  W  W846  1  0.18750000  0.25000000  0.87500000  1
  V  V847  1  0.18750000  0.25000000  0.93750000  1
  V  V848  1  0.18750000  0.31250000  0.00000000  1
  W  W849  1  0.18750000  0.31250000  0.06250000  1
  V  V850  1  0.18750000  0.31250000  0.12500000  1
  W  W851  1  0.18750000  0.31250000  0.18750000  1
  V  V852  1  0.18750000  0.31250000  0.25000000  1
  V  V853  1  0.18750000  0.31250000  0.31250000  1
  W  W854  1  0.18750000  0.31250000  0.37500000  1
  V  V855  1  0.18750000  0.31250000  0.43750000  1
  V  V856  1  0.18750000  0.31250000  0.50000000  1
  V  V857  1  0.18750000  0.31250000  0.56250000  1
  V  V858  1  0.18750000  0.31250000  0.62500000  1
  V  V859  1  0.18750000  0.31250000  0.68750000  1
  V  V860  1  0.18750000  0.31250000  0.75000000  1
  V  V861  1  0.18750000  0.31250000  0.81250000  1
  V  V862  1  0.18750000  0.31250000  0.87500000  1
  V  V863  1  0.18750000  0.31250000  0.93750000  1
  W  W864  1  0.18750000  0.37500000  0.00000000  1
  W  W865  1  0.18750000  0.37500000  0.06250000  1
  V  V866  1  0.18750000  0.37500000  0.12500000  1
  V  V867  1  0.18750000  0.37500000  0.18750000  1
  V  V868  1  0.18750000  0.37500000  0.25000000  1
  V  V869  1  0.18750000  0.37500000  0.31250000  1
  V  V870  1  0.18750000  0.37500000  0.37500000  1
  V  V871  1  0.18750000  0.37500000  0.43750000  1
  Ti  Ti872  1  0.18750000  0.37500000  0.50000000  1
  V  V873  1  0.18750000  0.37500000  0.56250000  1
  V  V874  1  0.18750000  0.37500000  0.62500000  1
  V  V875  1  0.18750000  0.37500000  0.68750000  1
  V  V876  1  0.18750000  0.37500000  0.75000000  1
  V  V877  1  0.18750000  0.37500000  0.81250000  1
  W  W878  1  0.18750000  0.37500000  0.87500000  1
  V  V879  1  0.18750000  0.37500000  0.93750000  1
  V  V880  1  0.18750000  0.43750000  0.00000000  1
  V  V881  1  0.18750000  0.43750000  0.06250000  1
  V  V882  1  0.18750000  0.43750000  0.12500000  1
  V  V883  1  0.18750000  0.43750000  0.18750000  1
  W  W884  1  0.18750000  0.43750000  0.25000000  1
  V  V885  1  0.18750000  0.43750000  0.31250000  1
  W  W886  1  0.18750000  0.43750000  0.37500000  1
  W  W887  1  0.18750000  0.43750000  0.43750000  1
  V  V888  1  0.18750000  0.43750000  0.50000000  1
  V  V889  1  0.18750000  0.43750000  0.56250000  1
  V  V890  1  0.18750000  0.43750000  0.62500000  1
  V  V891  1  0.18750000  0.43750000  0.68750000  1
  V  V892  1  0.18750000  0.43750000  0.75000000  1
  V  V893  1  0.18750000  0.43750000  0.81250000  1
  V  V894  1  0.18750000  0.43750000  0.87500000  1
  V  V895  1  0.18750000  0.43750000  0.93750000  1
  V  V896  1  0.18750000  0.50000000  0.00000000  1
  V  V897  1  0.18750000  0.50000000  0.06250000  1
  V  V898  1  0.18750000  0.50000000  0.12500000  1
  W  W899  1  0.18750000  0.50000000  0.18750000  1
  V  V900  1  0.18750000  0.50000000  0.25000000  1
  V  V901  1  0.18750000  0.50000000  0.31250000  1
  V  V902  1  0.18750000  0.50000000  0.37500000  1
  V  V903  1  0.18750000  0.50000000  0.43750000  1
  V  V904  1  0.18750000  0.50000000  0.50000000  1
  V  V905  1  0.18750000  0.50000000  0.56250000  1
  V  V906  1  0.18750000  0.50000000  0.62500000  1
  V  V907  1  0.18750000  0.50000000  0.68750000  1
  V  V908  1  0.18750000  0.50000000  0.75000000  1
  V  V909  1  0.18750000  0.50000000  0.81250000  1
  V  V910  1  0.18750000  0.50000000  0.87500000  1
  V  V911  1  0.18750000  0.50000000  0.93750000  1
  W  W912  1  0.18750000  0.56250000  0.00000000  1
  V  V913  1  0.18750000  0.56250000  0.06250000  1
  V  V914  1  0.18750000  0.56250000  0.12500000  1
  V  V915  1  0.18750000  0.56250000  0.18750000  1
  V  V916  1  0.18750000  0.56250000  0.25000000  1
  V  V917  1  0.18750000  0.56250000  0.31250000  1
  Cr  Cr918  1  0.18750000  0.56250000  0.37500000  1
  V  V919  1  0.18750000  0.56250000  0.43750000  1
  V  V920  1  0.18750000  0.56250000  0.50000000  1
  V  V921  1  0.18750000  0.56250000  0.56250000  1
  V  V922  1  0.18750000  0.56250000  0.62500000  1
  V  V923  1  0.18750000  0.56250000  0.68750000  1
  V  V924  1  0.18750000  0.56250000  0.75000000  1
  V  V925  1  0.18750000  0.56250000  0.81250000  1
  V  V926  1  0.18750000  0.56250000  0.87500000  1
  V  V927  1  0.18750000  0.56250000  0.93750000  1
  V  V928  1  0.18750000  0.62500000  0.00000000  1
  V  V929  1  0.18750000  0.62500000  0.06250000  1
  V  V930  1  0.18750000  0.62500000  0.12500000  1
  V  V931  1  0.18750000  0.62500000  0.18750000  1
  V  V932  1  0.18750000  0.62500000  0.25000000  1
  V  V933  1  0.18750000  0.62500000  0.31250000  1
  V  V934  1  0.18750000  0.62500000  0.37500000  1
  V  V935  1  0.18750000  0.62500000  0.43750000  1
  V  V936  1  0.18750000  0.62500000  0.50000000  1
  V  V937  1  0.18750000  0.62500000  0.56250000  1
  V  V938  1  0.18750000  0.62500000  0.62500000  1
  V  V939  1  0.18750000  0.62500000  0.68750000  1
  V  V940  1  0.18750000  0.62500000  0.75000000  1
  V  V941  1  0.18750000  0.62500000  0.81250000  1
  V  V942  1  0.18750000  0.62500000  0.87500000  1
  V  V943  1  0.18750000  0.62500000  0.93750000  1
  V  V944  1  0.18750000  0.68750000  0.00000000  1
  V  V945  1  0.18750000  0.68750000  0.06250000  1
  V  V946  1  0.18750000  0.68750000  0.12500000  1
  V  V947  1  0.18750000  0.68750000  0.18750000  1
  V  V948  1  0.18750000  0.68750000  0.25000000  1
  V  V949  1  0.18750000  0.68750000  0.31250000  1
  W  W950  1  0.18750000  0.68750000  0.37500000  1
  V  V951  1  0.18750000  0.68750000  0.43750000  1
  V  V952  1  0.18750000  0.68750000  0.50000000  1
  V  V953  1  0.18750000  0.68750000  0.56250000  1
  V  V954  1  0.18750000  0.68750000  0.62500000  1
  V  V955  1  0.18750000  0.68750000  0.68750000  1
  V  V956  1  0.18750000  0.68750000  0.75000000  1
  V  V957  1  0.18750000  0.68750000  0.81250000  1
  W  W958  1  0.18750000  0.68750000  0.87500000  1
  V  V959  1  0.18750000  0.68750000  0.93750000  1
  V  V960  1  0.18750000  0.75000000  0.00000000  1
  V  V961  1  0.18750000  0.75000000  0.06250000  1
  V  V962  1  0.18750000  0.75000000  0.12500000  1
  V  V963  1  0.18750000  0.75000000  0.18750000  1
  W  W964  1  0.18750000  0.75000000  0.25000000  1
  W  W965  1  0.18750000  0.75000000  0.31250000  1
  V  V966  1  0.18750000  0.75000000  0.37500000  1
  V  V967  1  0.18750000  0.75000000  0.43750000  1
  V  V968  1  0.18750000  0.75000000  0.50000000  1
  V  V969  1  0.18750000  0.75000000  0.56250000  1
  W  W970  1  0.18750000  0.75000000  0.62500000  1
  V  V971  1  0.18750000  0.75000000  0.68750000  1
  Cr  Cr972  1  0.18750000  0.75000000  0.75000000  1
  V  V973  1  0.18750000  0.75000000  0.81250000  1
  V  V974  1  0.18750000  0.75000000  0.87500000  1
  V  V975  1  0.18750000  0.75000000  0.93750000  1
  V  V976  1  0.18750000  0.81250000  0.00000000  1
  W  W977  1  0.18750000  0.81250000  0.06250000  1
  V  V978  1  0.18750000  0.81250000  0.12500000  1
  W  W979  1  0.18750000  0.81250000  0.18750000  1
  V  V980  1  0.18750000  0.81250000  0.25000000  1
  V  V981  1  0.18750000  0.81250000  0.31250000  1
  W  W982  1  0.18750000  0.81250000  0.37500000  1
  V  V983  1  0.18750000  0.81250000  0.43750000  1
  V  V984  1  0.18750000  0.81250000  0.50000000  1
  W  W985  1  0.18750000  0.81250000  0.56250000  1
  V  V986  1  0.18750000  0.81250000  0.62500000  1
  V  V987  1  0.18750000  0.81250000  0.68750000  1
  V  V988  1  0.18750000  0.81250000  0.75000000  1
  V  V989  1  0.18750000  0.81250000  0.81250000  1
  V  V990  1  0.18750000  0.81250000  0.87500000  1
  V  V991  1  0.18750000  0.81250000  0.93750000  1
  V  V992  1  0.18750000  0.87500000  0.00000000  1
  V  V993  1  0.18750000  0.87500000  0.06250000  1
  V  V994  1  0.18750000  0.87500000  0.12500000  1
  V  V995  1  0.18750000  0.87500000  0.18750000  1
  W  W996  1  0.18750000  0.87500000  0.25000000  1
  V  V997  1  0.18750000  0.87500000  0.31250000  1
  V  V998  1  0.18750000  0.87500000  0.37500000  1
  V  V999  1  0.18750000  0.87500000  0.43750000  1
  V  V1000  1  0.18750000  0.87500000  0.50000000  1
  W  W1001  1  0.18750000  0.87500000  0.56250000  1
  V  V1002  1  0.18750000  0.87500000  0.62500000  1
  V  V1003  1  0.18750000  0.87500000  0.68750000  1
  V  V1004  1  0.18750000  0.87500000  0.75000000  1
  V  V1005  1  0.18750000  0.87500000  0.81250000  1
  V  V1006  1  0.18750000  0.87500000  0.87500000  1
  V  V1007  1  0.18750000  0.87500000  0.93750000  1
  V  V1008  1  0.18750000  0.93750000  0.00000000  1
  V  V1009  1  0.18750000  0.93750000  0.06250000  1
  V  V1010  1  0.18750000  0.93750000  0.12500000  1
  W  W1011  1  0.18750000  0.93750000  0.18750000  1
  V  V1012  1  0.18750000  0.93750000  0.25000000  1
  V  V1013  1  0.18750000  0.93750000  0.31250000  1
  V  V1014  1  0.18750000  0.93750000  0.37500000  1
  V  V1015  1  0.18750000  0.93750000  0.43750000  1
  V  V1016  1  0.18750000  0.93750000  0.50000000  1
  V  V1017  1  0.18750000  0.93750000  0.56250000  1
  V  V1018  1  0.18750000  0.93750000  0.62500000  1
  V  V1019  1  0.18750000  0.93750000  0.68750000  1
  V  V1020  1  0.18750000  0.93750000  0.75000000  1
  V  V1021  1  0.18750000  0.93750000  0.81250000  1
  V  V1022  1  0.18750000  0.93750000  0.87500000  1
  V  V1023  1  0.18750000  0.93750000  0.93750000  1
  V  V1024  1  0.25000000  0.00000000  0.00000000  1
  V  V1025  1  0.25000000  0.00000000  0.06250000  1
  V  V1026  1  0.25000000  0.00000000  0.12500000  1
  V  V1027  1  0.25000000  0.00000000  0.18750000  1
  V  V1028  1  0.25000000  0.00000000  0.25000000  1
  V  V1029  1  0.25000000  0.00000000  0.31250000  1
  V  V1030  1  0.25000000  0.00000000  0.37500000  1
  V  V1031  1  0.25000000  0.00000000  0.43750000  1
  V  V1032  1  0.25000000  0.00000000  0.50000000  1
  V  V1033  1  0.25000000  0.00000000  0.56250000  1
  V  V1034  1  0.25000000  0.00000000  0.62500000  1
  V  V1035  1  0.25000000  0.00000000  0.68750000  1
  V  V1036  1  0.25000000  0.00000000  0.75000000  1
  V  V1037  1  0.25000000  0.00000000  0.81250000  1
  V  V1038  1  0.25000000  0.00000000  0.87500000  1
  V  V1039  1  0.25000000  0.00000000  0.93750000  1
  V  V1040  1  0.25000000  0.06250000  0.00000000  1
  V  V1041  1  0.25000000  0.06250000  0.06250000  1
  V  V1042  1  0.25000000  0.06250000  0.12500000  1
  V  V1043  1  0.25000000  0.06250000  0.18750000  1
  V  V1044  1  0.25000000  0.06250000  0.25000000  1
  V  V1045  1  0.25000000  0.06250000  0.31250000  1
  V  V1046  1  0.25000000  0.06250000  0.37500000  1
  V  V1047  1  0.25000000  0.06250000  0.43750000  1
  V  V1048  1  0.25000000  0.06250000  0.50000000  1
  V  V1049  1  0.25000000  0.06250000  0.56250000  1
  W  W1050  1  0.25000000  0.06250000  0.62500000  1
  V  V1051  1  0.25000000  0.06250000  0.68750000  1
  V  V1052  1  0.25000000  0.06250000  0.75000000  1
  V  V1053  1  0.25000000  0.06250000  0.81250000  1
  V  V1054  1  0.25000000  0.06250000  0.87500000  1
  V  V1055  1  0.25000000  0.06250000  0.93750000  1
  V  V1056  1  0.25000000  0.12500000  0.00000000  1
  V  V1057  1  0.25000000  0.12500000  0.06250000  1
  V  V1058  1  0.25000000  0.12500000  0.12500000  1
  V  V1059  1  0.25000000  0.12500000  0.18750000  1
  V  V1060  1  0.25000000  0.12500000  0.25000000  1
  V  V1061  1  0.25000000  0.12500000  0.31250000  1
  V  V1062  1  0.25000000  0.12500000  0.37500000  1
  V  V1063  1  0.25000000  0.12500000  0.43750000  1
  V  V1064  1  0.25000000  0.12500000  0.50000000  1
  V  V1065  1  0.25000000  0.12500000  0.56250000  1
  V  V1066  1  0.25000000  0.12500000  0.62500000  1
  V  V1067  1  0.25000000  0.12500000  0.68750000  1
  V  V1068  1  0.25000000  0.12500000  0.75000000  1
  V  V1069  1  0.25000000  0.12500000  0.81250000  1
  V  V1070  1  0.25000000  0.12500000  0.87500000  1
  V  V1071  1  0.25000000  0.12500000  0.93750000  1
  V  V1072  1  0.25000000  0.18750000  0.00000000  1
  V  V1073  1  0.25000000  0.18750000  0.06250000  1
  V  V1074  1  0.25000000  0.18750000  0.12500000  1
  V  V1075  1  0.25000000  0.18750000  0.18750000  1
  V  V1076  1  0.25000000  0.18750000  0.25000000  1
  V  V1077  1  0.25000000  0.18750000  0.31250000  1
  V  V1078  1  0.25000000  0.18750000  0.37500000  1
  V  V1079  1  0.25000000  0.18750000  0.43750000  1
  V  V1080  1  0.25000000  0.18750000  0.50000000  1
  V  V1081  1  0.25000000  0.18750000  0.56250000  1
  V  V1082  1  0.25000000  0.18750000  0.62500000  1
  V  V1083  1  0.25000000  0.18750000  0.68750000  1
  V  V1084  1  0.25000000  0.18750000  0.75000000  1
  V  V1085  1  0.25000000  0.18750000  0.81250000  1
  V  V1086  1  0.25000000  0.18750000  0.87500000  1
  V  V1087  1  0.25000000  0.18750000  0.93750000  1
  V  V1088  1  0.25000000  0.25000000  0.00000000  1
  V  V1089  1  0.25000000  0.25000000  0.06250000  1
  V  V1090  1  0.25000000  0.25000000  0.12500000  1
  V  V1091  1  0.25000000  0.25000000  0.18750000  1
  V  V1092  1  0.25000000  0.25000000  0.25000000  1
  V  V1093  1  0.25000000  0.25000000  0.31250000  1
  V  V1094  1  0.25000000  0.25000000  0.37500000  1
  Ti  Ti1095  1  0.25000000  0.25000000  0.43750000  1
  Ti  Ti1096  1  0.25000000  0.25000000  0.50000000  1
  V  V1097  1  0.25000000  0.25000000  0.56250000  1
  V  V1098  1  0.25000000  0.25000000  0.62500000  1
  V  V1099  1  0.25000000  0.25000000  0.68750000  1
  V  V1100  1  0.25000000  0.25000000  0.75000000  1
  V  V1101  1  0.25000000  0.25000000  0.81250000  1
  V  V1102  1  0.25000000  0.25000000  0.87500000  1
  V  V1103  1  0.25000000  0.25000000  0.93750000  1
  V  V1104  1  0.25000000  0.31250000  0.00000000  1
  V  V1105  1  0.25000000  0.31250000  0.06250000  1
  V  V1106  1  0.25000000  0.31250000  0.12500000  1
  V  V1107  1  0.25000000  0.31250000  0.18750000  1
  V  V1108  1  0.25000000  0.31250000  0.25000000  1
  V  V1109  1  0.25000000  0.31250000  0.31250000  1
  V  V1110  1  0.25000000  0.31250000  0.37500000  1
  V  V1111  1  0.25000000  0.31250000  0.43750000  1
  Ti  Ti1112  1  0.25000000  0.31250000  0.50000000  1
  Ti  Ti1113  1  0.25000000  0.31250000  0.56250000  1
  V  V1114  1  0.25000000  0.31250000  0.62500000  1
  V  V1115  1  0.25000000  0.31250000  0.68750000  1
  V  V1116  1  0.25000000  0.31250000  0.75000000  1
  V  V1117  1  0.25000000  0.31250000  0.81250000  1
  V  V1118  1  0.25000000  0.31250000  0.87500000  1
  V  V1119  1  0.25000000  0.31250000  0.93750000  1
  V  V1120  1  0.25000000  0.37500000  0.00000000  1
  V  V1121  1  0.25000000  0.37500000  0.06250000  1
  V  V1122  1  0.25000000  0.37500000  0.12500000  1
  V  V1123  1  0.25000000  0.37500000  0.18750000  1
  V  V1124  1  0.25000000  0.37500000  0.25000000  1
  V  V1125  1  0.25000000  0.37500000  0.31250000  1
  V  V1126  1  0.25000000  0.37500000  0.37500000  1
  V  V1127  1  0.25000000  0.37500000  0.43750000  1
  Ti  Ti1128  1  0.25000000  0.37500000  0.50000000  1
  V  V1129  1  0.25000000  0.37500000  0.56250000  1
  V  V1130  1  0.25000000  0.37500000  0.62500000  1
  V  V1131  1  0.25000000  0.37500000  0.68750000  1
  V  V1132  1  0.25000000  0.37500000  0.75000000  1
  V  V1133  1  0.25000000  0.37500000  0.81250000  1
  V  V1134  1  0.25000000  0.37500000  0.87500000  1
  V  V1135  1  0.25000000  0.37500000  0.93750000  1
  V  V1136  1  0.25000000  0.43750000  0.00000000  1
  V  V1137  1  0.25000000  0.43750000  0.06250000  1
  V  V1138  1  0.25000000  0.43750000  0.12500000  1
  V  V1139  1  0.25000000  0.43750000  0.18750000  1
  V  V1140  1  0.25000000  0.43750000  0.25000000  1
  V  V1141  1  0.25000000  0.43750000  0.31250000  1
  V  V1142  1  0.25000000  0.43750000  0.37500000  1
  V  V1143  1  0.25000000  0.43750000  0.43750000  1
  Ti  Ti1144  1  0.25000000  0.43750000  0.50000000  1
  Ti  Ti1145  1  0.25000000  0.43750000  0.56250000  1
  V  V1146  1  0.25000000  0.43750000  0.62500000  1
  V  V1147  1  0.25000000  0.43750000  0.68750000  1
  V  V1148  1  0.25000000  0.43750000  0.75000000  1
  V  V1149  1  0.25000000  0.43750000  0.81250000  1
  V  V1150  1  0.25000000  0.43750000  0.87500000  1
  V  V1151  1  0.25000000  0.43750000  0.93750000  1
  V  V1152  1  0.25000000  0.50000000  0.00000000  1
  V  V1153  1  0.25000000  0.50000000  0.06250000  1
  V  V1154  1  0.25000000  0.50000000  0.12500000  1
  V  V1155  1  0.25000000  0.50000000  0.18750000  1
  V  V1156  1  0.25000000  0.50000000  0.25000000  1
  V  V1157  1  0.25000000  0.50000000  0.31250000  1
  V  V1158  1  0.25000000  0.50000000  0.37500000  1
  V  V1159  1  0.25000000  0.50000000  0.43750000  1
  V  V1160  1  0.25000000  0.50000000  0.50000000  1
  V  V1161  1  0.25000000  0.50000000  0.56250000  1
  V  V1162  1  0.25000000  0.50000000  0.62500000  1
  V  V1163  1  0.25000000  0.50000000  0.68750000  1
  V  V1164  1  0.25000000  0.50000000  0.75000000  1
  W  W1165  1  0.25000000  0.50000000  0.81250000  1
  V  V1166  1  0.25000000  0.50000000  0.87500000  1
  V  V1167  1  0.25000000  0.50000000  0.93750000  1
  V  V1168  1  0.25000000  0.56250000  0.00000000  1
  V  V1169  1  0.25000000  0.56250000  0.06250000  1
  V  V1170  1  0.25000000  0.56250000  0.12500000  1
  V  V1171  1  0.25000000  0.56250000  0.18750000  1
  V  V1172  1  0.25000000  0.56250000  0.25000000  1
  V  V1173  1  0.25000000  0.56250000  0.31250000  1
  V  V1174  1  0.25000000  0.56250000  0.37500000  1
  V  V1175  1  0.25000000  0.56250000  0.43750000  1
  V  V1176  1  0.25000000  0.56250000  0.50000000  1
  V  V1177  1  0.25000000  0.56250000  0.56250000  1
  V  V1178  1  0.25000000  0.56250000  0.62500000  1
  V  V1179  1  0.25000000  0.56250000  0.68750000  1
  V  V1180  1  0.25000000  0.56250000  0.75000000  1
  V  V1181  1  0.25000000  0.56250000  0.81250000  1
  V  V1182  1  0.25000000  0.56250000  0.87500000  1
  V  V1183  1  0.25000000  0.56250000  0.93750000  1
  V  V1184  1  0.25000000  0.62500000  0.00000000  1
  V  V1185  1  0.25000000  0.62500000  0.06250000  1
  V  V1186  1  0.25000000  0.62500000  0.12500000  1
  V  V1187  1  0.25000000  0.62500000  0.18750000  1
  V  V1188  1  0.25000000  0.62500000  0.25000000  1
  V  V1189  1  0.25000000  0.62500000  0.31250000  1
  V  V1190  1  0.25000000  0.62500000  0.37500000  1
  V  V1191  1  0.25000000  0.62500000  0.43750000  1
  V  V1192  1  0.25000000  0.62500000  0.50000000  1
  V  V1193  1  0.25000000  0.62500000  0.56250000  1
  V  V1194  1  0.25000000  0.62500000  0.62500000  1
  V  V1195  1  0.25000000  0.62500000  0.68750000  1
  V  V1196  1  0.25000000  0.62500000  0.75000000  1
  V  V1197  1  0.25000000  0.62500000  0.81250000  1
  W  W1198  1  0.25000000  0.62500000  0.87500000  1
  V  V1199  1  0.25000000  0.62500000  0.93750000  1
  V  V1200  1  0.25000000  0.68750000  0.00000000  1
  W  W1201  1  0.25000000  0.68750000  0.06250000  1
  V  V1202  1  0.25000000  0.68750000  0.12500000  1
  V  V1203  1  0.25000000  0.68750000  0.18750000  1
  Cr  Cr1204  1  0.25000000  0.68750000  0.25000000  1
  V  V1205  1  0.25000000  0.68750000  0.31250000  1
  V  V1206  1  0.25000000  0.68750000  0.37500000  1
  V  V1207  1  0.25000000  0.68750000  0.43750000  1
  V  V1208  1  0.25000000  0.68750000  0.50000000  1
  V  V1209  1  0.25000000  0.68750000  0.56250000  1
  V  V1210  1  0.25000000  0.68750000  0.62500000  1
  V  V1211  1  0.25000000  0.68750000  0.68750000  1
  V  V1212  1  0.25000000  0.68750000  0.75000000  1
  V  V1213  1  0.25000000  0.68750000  0.81250000  1
  V  V1214  1  0.25000000  0.68750000  0.87500000  1
  V  V1215  1  0.25000000  0.68750000  0.93750000  1
  V  V1216  1  0.25000000  0.75000000  0.00000000  1
  V  V1217  1  0.25000000  0.75000000  0.06250000  1
  V  V1218  1  0.25000000  0.75000000  0.12500000  1
  V  V1219  1  0.25000000  0.75000000  0.18750000  1
  V  V1220  1  0.25000000  0.75000000  0.25000000  1
  V  V1221  1  0.25000000  0.75000000  0.31250000  1
  V  V1222  1  0.25000000  0.75000000  0.37500000  1
  V  V1223  1  0.25000000  0.75000000  0.43750000  1
  W  W1224  1  0.25000000  0.75000000  0.50000000  1
  V  V1225  1  0.25000000  0.75000000  0.56250000  1
  V  V1226  1  0.25000000  0.75000000  0.62500000  1
  V  V1227  1  0.25000000  0.75000000  0.68750000  1
  V  V1228  1  0.25000000  0.75000000  0.75000000  1
  W  W1229  1  0.25000000  0.75000000  0.81250000  1
  V  V1230  1  0.25000000  0.75000000  0.87500000  1
  V  V1231  1  0.25000000  0.75000000  0.93750000  1
  V  V1232  1  0.25000000  0.81250000  0.00000000  1
  V  V1233  1  0.25000000  0.81250000  0.06250000  1
  V  V1234  1  0.25000000  0.81250000  0.12500000  1
  V  V1235  1  0.25000000  0.81250000  0.18750000  1
  V  V1236  1  0.25000000  0.81250000  0.25000000  1
  V  V1237  1  0.25000000  0.81250000  0.31250000  1
  V  V1238  1  0.25000000  0.81250000  0.37500000  1
  V  V1239  1  0.25000000  0.81250000  0.43750000  1
  V  V1240  1  0.25000000  0.81250000  0.50000000  1
  V  V1241  1  0.25000000  0.81250000  0.56250000  1
  V  V1242  1  0.25000000  0.81250000  0.62500000  1
  V  V1243  1  0.25000000  0.81250000  0.68750000  1
  V  V1244  1  0.25000000  0.81250000  0.75000000  1
  V  V1245  1  0.25000000  0.81250000  0.81250000  1
  V  V1246  1  0.25000000  0.81250000  0.87500000  1
  V  V1247  1  0.25000000  0.81250000  0.93750000  1
  V  V1248  1  0.25000000  0.87500000  0.00000000  1
  W  W1249  1  0.25000000  0.87500000  0.06250000  1
  V  V1250  1  0.25000000  0.87500000  0.12500000  1
  V  V1251  1  0.25000000  0.87500000  0.18750000  1
  V  V1252  1  0.25000000  0.87500000  0.25000000  1
  V  V1253  1  0.25000000  0.87500000  0.31250000  1
  V  V1254  1  0.25000000  0.87500000  0.37500000  1
  V  V1255  1  0.25000000  0.87500000  0.43750000  1
  V  V1256  1  0.25000000  0.87500000  0.50000000  1
  V  V1257  1  0.25000000  0.87500000  0.56250000  1
  V  V1258  1  0.25000000  0.87500000  0.62500000  1
  V  V1259  1  0.25000000  0.87500000  0.68750000  1
  V  V1260  1  0.25000000  0.87500000  0.75000000  1
  V  V1261  1  0.25000000  0.87500000  0.81250000  1
  V  V1262  1  0.25000000  0.87500000  0.87500000  1
  V  V1263  1  0.25000000  0.87500000  0.93750000  1
  V  V1264  1  0.25000000  0.93750000  0.00000000  1
  V  V1265  1  0.25000000  0.93750000  0.06250000  1
  V  V1266  1  0.25000000  0.93750000  0.12500000  1
  V  V1267  1  0.25000000  0.93750000  0.18750000  1
  V  V1268  1  0.25000000  0.93750000  0.25000000  1
  V  V1269  1  0.25000000  0.93750000  0.31250000  1
  V  V1270  1  0.25000000  0.93750000  0.37500000  1
  V  V1271  1  0.25000000  0.93750000  0.43750000  1
  V  V1272  1  0.25000000  0.93750000  0.50000000  1
  V  V1273  1  0.25000000  0.93750000  0.56250000  1
  V  V1274  1  0.25000000  0.93750000  0.62500000  1
  V  V1275  1  0.25000000  0.93750000  0.68750000  1
  V  V1276  1  0.25000000  0.93750000  0.75000000  1
  V  V1277  1  0.25000000  0.93750000  0.81250000  1
  V  V1278  1  0.25000000  0.93750000  0.87500000  1
  V  V1279  1  0.25000000  0.93750000  0.93750000  1
  V  V1280  1  0.31250000  0.00000000  0.00000000  1
  V  V1281  1  0.31250000  0.00000000  0.06250000  1
  V  V1282  1  0.31250000  0.00000000  0.12500000  1
  V  V1283  1  0.31250000  0.00000000  0.18750000  1
  V  V1284  1  0.31250000  0.00000000  0.25000000  1
  V  V1285  1  0.31250000  0.00000000  0.31250000  1
  V  V1286  1  0.31250000  0.00000000  0.37500000  1
  V  V1287  1  0.31250000  0.00000000  0.43750000  1
  W  W1288  1  0.31250000  0.00000000  0.50000000  1
  W  W1289  1  0.31250000  0.00000000  0.56250000  1
  V  V1290  1  0.31250000  0.00000000  0.62500000  1
  V  V1291  1  0.31250000  0.00000000  0.68750000  1
  W  W1292  1  0.31250000  0.00000000  0.75000000  1
  V  V1293  1  0.31250000  0.00000000  0.81250000  1
  V  V1294  1  0.31250000  0.00000000  0.87500000  1
  V  V1295  1  0.31250000  0.00000000  0.93750000  1
  V  V1296  1  0.31250000  0.06250000  0.00000000  1
  V  V1297  1  0.31250000  0.06250000  0.06250000  1
  V  V1298  1  0.31250000  0.06250000  0.12500000  1
  V  V1299  1  0.31250000  0.06250000  0.18750000  1
  V  V1300  1  0.31250000  0.06250000  0.25000000  1
  V  V1301  1  0.31250000  0.06250000  0.31250000  1
  V  V1302  1  0.31250000  0.06250000  0.37500000  1
  V  V1303  1  0.31250000  0.06250000  0.43750000  1
  V  V1304  1  0.31250000  0.06250000  0.50000000  1
  V  V1305  1  0.31250000  0.06250000  0.56250000  1
  V  V1306  1  0.31250000  0.06250000  0.62500000  1
  V  V1307  1  0.31250000  0.06250000  0.68750000  1
  W  W1308  1  0.31250000  0.06250000  0.75000000  1
  V  V1309  1  0.31250000  0.06250000  0.81250000  1
  V  V1310  1  0.31250000  0.06250000  0.87500000  1
  W  W1311  1  0.31250000  0.06250000  0.93750000  1
  V  V1312  1  0.31250000  0.12500000  0.00000000  1
  V  V1313  1  0.31250000  0.12500000  0.06250000  1
  V  V1314  1  0.31250000  0.12500000  0.12500000  1
  V  V1315  1  0.31250000  0.12500000  0.18750000  1
  V  V1316  1  0.31250000  0.12500000  0.25000000  1
  V  V1317  1  0.31250000  0.12500000  0.31250000  1
  V  V1318  1  0.31250000  0.12500000  0.37500000  1
  V  V1319  1  0.31250000  0.12500000  0.43750000  1
  V  V1320  1  0.31250000  0.12500000  0.50000000  1
  V  V1321  1  0.31250000  0.12500000  0.56250000  1
  V  V1322  1  0.31250000  0.12500000  0.62500000  1
  V  V1323  1  0.31250000  0.12500000  0.68750000  1
  W  W1324  1  0.31250000  0.12500000  0.75000000  1
  V  V1325  1  0.31250000  0.12500000  0.81250000  1
  V  V1326  1  0.31250000  0.12500000  0.87500000  1
  V  V1327  1  0.31250000  0.12500000  0.93750000  1
  V  V1328  1  0.31250000  0.18750000  0.00000000  1
  V  V1329  1  0.31250000  0.18750000  0.06250000  1
  V  V1330  1  0.31250000  0.18750000  0.12500000  1
  V  V1331  1  0.31250000  0.18750000  0.18750000  1
  V  V1332  1  0.31250000  0.18750000  0.25000000  1
  V  V1333  1  0.31250000  0.18750000  0.31250000  1
  V  V1334  1  0.31250000  0.18750000  0.37500000  1
  Ti  Ti1335  1  0.31250000  0.18750000  0.43750000  1
  V  V1336  1  0.31250000  0.18750000  0.50000000  1
  V  V1337  1  0.31250000  0.18750000  0.56250000  1
  V  V1338  1  0.31250000  0.18750000  0.62500000  1
  V  V1339  1  0.31250000  0.18750000  0.68750000  1
  V  V1340  1  0.31250000  0.18750000  0.75000000  1
  V  V1341  1  0.31250000  0.18750000  0.81250000  1
  V  V1342  1  0.31250000  0.18750000  0.87500000  1
  V  V1343  1  0.31250000  0.18750000  0.93750000  1
  V  V1344  1  0.31250000  0.25000000  0.00000000  1
  V  V1345  1  0.31250000  0.25000000  0.06250000  1
  V  V1346  1  0.31250000  0.25000000  0.12500000  1
  V  V1347  1  0.31250000  0.25000000  0.18750000  1
  W  W1348  1  0.31250000  0.25000000  0.25000000  1
  V  V1349  1  0.31250000  0.25000000  0.31250000  1
  V  V1350  1  0.31250000  0.25000000  0.37500000  1
  V  V1351  1  0.31250000  0.25000000  0.43750000  1
  Zr  Zr1352  1  0.31250000  0.25000000  0.50000000  1
  Zr  Zr1353  1  0.31250000  0.25000000  0.56250000  1
  Ti  Ti1354  1  0.31250000  0.25000000  0.62500000  1
  V  V1355  1  0.31250000  0.25000000  0.68750000  1
  V  V1356  1  0.31250000  0.25000000  0.75000000  1
  V  V1357  1  0.31250000  0.25000000  0.81250000  1
  V  V1358  1  0.31250000  0.25000000  0.87500000  1
  V  V1359  1  0.31250000  0.25000000  0.93750000  1
  V  V1360  1  0.31250000  0.31250000  0.00000000  1
  V  V1361  1  0.31250000  0.31250000  0.06250000  1
  V  V1362  1  0.31250000  0.31250000  0.12500000  1
  V  V1363  1  0.31250000  0.31250000  0.18750000  1
  V  V1364  1  0.31250000  0.31250000  0.25000000  1
  V  V1365  1  0.31250000  0.31250000  0.31250000  1
  V  V1366  1  0.31250000  0.31250000  0.37500000  1
  Zr  Zr1367  1  0.31250000  0.31250000  0.43750000  1
  Zr  Zr1368  1  0.31250000  0.31250000  0.50000000  1
  Zr  Zr1369  1  0.31250000  0.31250000  0.56250000  1
  Zr  Zr1370  1  0.31250000  0.31250000  0.62500000  1
  V  V1371  1  0.31250000  0.31250000  0.68750000  1
  V  V1372  1  0.31250000  0.31250000  0.75000000  1
  V  V1373  1  0.31250000  0.31250000  0.81250000  1
  V  V1374  1  0.31250000  0.31250000  0.87500000  1
  V  V1375  1  0.31250000  0.31250000  0.93750000  1
  V  V1376  1  0.31250000  0.37500000  0.00000000  1
  V  V1377  1  0.31250000  0.37500000  0.06250000  1
  V  V1378  1  0.31250000  0.37500000  0.12500000  1
  Cr  Cr1379  1  0.31250000  0.37500000  0.18750000  1
  V  V1380  1  0.31250000  0.37500000  0.25000000  1
  V  V1381  1  0.31250000  0.37500000  0.31250000  1
  V  V1382  1  0.31250000  0.37500000  0.37500000  1
  Zr  Zr1383  1  0.31250000  0.37500000  0.43750000  1
  Zr  Zr1384  1  0.31250000  0.37500000  0.50000000  1
  Zr  Zr1385  1  0.31250000  0.37500000  0.56250000  1
  Zr  Zr1386  1  0.31250000  0.37500000  0.62500000  1
  W  W1387  1  0.31250000  0.37500000  0.68750000  1
  V  V1388  1  0.31250000  0.37500000  0.75000000  1
  V  V1389  1  0.31250000  0.37500000  0.81250000  1
  W  W1390  1  0.31250000  0.37500000  0.87500000  1
  W  W1391  1  0.31250000  0.37500000  0.93750000  1
  V  V1392  1  0.31250000  0.43750000  0.00000000  1
  V  V1393  1  0.31250000  0.43750000  0.06250000  1
  V  V1394  1  0.31250000  0.43750000  0.12500000  1
  V  V1395  1  0.31250000  0.43750000  0.18750000  1
  V  V1396  1  0.31250000  0.43750000  0.25000000  1
  V  V1397  1  0.31250000  0.43750000  0.31250000  1
  V  V1398  1  0.31250000  0.43750000  0.37500000  1
  Ti  Ti1399  1  0.31250000  0.43750000  0.43750000  1
  Zr  Zr1400  1  0.31250000  0.43750000  0.50000000  1
  Zr  Zr1401  1  0.31250000  0.43750000  0.56250000  1
  Zr  Zr1402  1  0.31250000  0.43750000  0.62500000  1
  V  V1403  1  0.31250000  0.43750000  0.68750000  1
  V  V1404  1  0.31250000  0.43750000  0.75000000  1
  V  V1405  1  0.31250000  0.43750000  0.81250000  1
  W  W1406  1  0.31250000  0.43750000  0.87500000  1
  V  V1407  1  0.31250000  0.43750000  0.93750000  1
  V  V1408  1  0.31250000  0.50000000  0.00000000  1
  V  V1409  1  0.31250000  0.50000000  0.06250000  1
  V  V1410  1  0.31250000  0.50000000  0.12500000  1
  V  V1411  1  0.31250000  0.50000000  0.18750000  1
  V  V1412  1  0.31250000  0.50000000  0.25000000  1
  V  V1413  1  0.31250000  0.50000000  0.31250000  1
  V  V1414  1  0.31250000  0.50000000  0.37500000  1
  V  V1415  1  0.31250000  0.50000000  0.43750000  1
  V  V1416  1  0.31250000  0.50000000  0.50000000  1
  Ti  Ti1417  1  0.31250000  0.50000000  0.56250000  1
  V  V1418  1  0.31250000  0.50000000  0.62500000  1
  V  V1419  1  0.31250000  0.50000000  0.68750000  1
  V  V1420  1  0.31250000  0.50000000  0.75000000  1
  V  V1421  1  0.31250000  0.50000000  0.81250000  1
  V  V1422  1  0.31250000  0.50000000  0.87500000  1
  V  V1423  1  0.31250000  0.50000000  0.93750000  1
  V  V1424  1  0.31250000  0.56250000  0.00000000  1
  V  V1425  1  0.31250000  0.56250000  0.06250000  1
  V  V1426  1  0.31250000  0.56250000  0.12500000  1
  V  V1427  1  0.31250000  0.56250000  0.18750000  1
  V  V1428  1  0.31250000  0.56250000  0.25000000  1
  V  V1429  1  0.31250000  0.56250000  0.31250000  1
  W  W1430  1  0.31250000  0.56250000  0.37500000  1
  V  V1431  1  0.31250000  0.56250000  0.43750000  1
  V  V1432  1  0.31250000  0.56250000  0.50000000  1
  V  V1433  1  0.31250000  0.56250000  0.56250000  1
  V  V1434  1  0.31250000  0.56250000  0.62500000  1
  V  V1435  1  0.31250000  0.56250000  0.68750000  1
  V  V1436  1  0.31250000  0.56250000  0.75000000  1
  V  V1437  1  0.31250000  0.56250000  0.81250000  1
  V  V1438  1  0.31250000  0.56250000  0.87500000  1
  V  V1439  1  0.31250000  0.56250000  0.93750000  1
  V  V1440  1  0.31250000  0.62500000  0.00000000  1
  V  V1441  1  0.31250000  0.62500000  0.06250000  1
  V  V1442  1  0.31250000  0.62500000  0.12500000  1
  V  V1443  1  0.31250000  0.62500000  0.18750000  1
  V  V1444  1  0.31250000  0.62500000  0.25000000  1
  V  V1445  1  0.31250000  0.62500000  0.31250000  1
  V  V1446  1  0.31250000  0.62500000  0.37500000  1
  V  V1447  1  0.31250000  0.62500000  0.43750000  1
  V  V1448  1  0.31250000  0.62500000  0.50000000  1
  V  V1449  1  0.31250000  0.62500000  0.56250000  1
  V  V1450  1  0.31250000  0.62500000  0.62500000  1
  V  V1451  1  0.31250000  0.62500000  0.68750000  1
  V  V1452  1  0.31250000  0.62500000  0.75000000  1
  V  V1453  1  0.31250000  0.62500000  0.81250000  1
  V  V1454  1  0.31250000  0.62500000  0.87500000  1
  V  V1455  1  0.31250000  0.62500000  0.93750000  1
  V  V1456  1  0.31250000  0.68750000  0.00000000  1
  V  V1457  1  0.31250000  0.68750000  0.06250000  1
  Cr  Cr1458  1  0.31250000  0.68750000  0.12500000  1
  V  V1459  1  0.31250000  0.68750000  0.18750000  1
  V  V1460  1  0.31250000  0.68750000  0.25000000  1
  V  V1461  1  0.31250000  0.68750000  0.31250000  1
  V  V1462  1  0.31250000  0.68750000  0.37500000  1
  V  V1463  1  0.31250000  0.68750000  0.43750000  1
  V  V1464  1  0.31250000  0.68750000  0.50000000  1
  W  W1465  1  0.31250000  0.68750000  0.56250000  1
  V  V1466  1  0.31250000  0.68750000  0.62500000  1
  V  V1467  1  0.31250000  0.68750000  0.68750000  1
  V  V1468  1  0.31250000  0.68750000  0.75000000  1
  W  W1469  1  0.31250000  0.68750000  0.81250000  1
  V  V1470  1  0.31250000  0.68750000  0.87500000  1
  V  V1471  1  0.31250000  0.68750000  0.93750000  1
  V  V1472  1  0.31250000  0.75000000  0.00000000  1
  W  W1473  1  0.31250000  0.75000000  0.06250000  1
  V  V1474  1  0.31250000  0.75000000  0.12500000  1
  V  V1475  1  0.31250000  0.75000000  0.18750000  1
  V  V1476  1  0.31250000  0.75000000  0.25000000  1
  V  V1477  1  0.31250000  0.75000000  0.31250000  1
  V  V1478  1  0.31250000  0.75000000  0.37500000  1
  V  V1479  1  0.31250000  0.75000000  0.43750000  1
  V  V1480  1  0.31250000  0.75000000  0.50000000  1
  V  V1481  1  0.31250000  0.75000000  0.56250000  1
  V  V1482  1  0.31250000  0.75000000  0.62500000  1
  V  V1483  1  0.31250000  0.75000000  0.68750000  1
  V  V1484  1  0.31250000  0.75000000  0.75000000  1
  V  V1485  1  0.31250000  0.75000000  0.81250000  1
  V  V1486  1  0.31250000  0.75000000  0.87500000  1
  V  V1487  1  0.31250000  0.75000000  0.93750000  1
  V  V1488  1  0.31250000  0.81250000  0.00000000  1
  V  V1489  1  0.31250000  0.81250000  0.06250000  1
  V  V1490  1  0.31250000  0.81250000  0.12500000  1
  V  V1491  1  0.31250000  0.81250000  0.18750000  1
  V  V1492  1  0.31250000  0.81250000  0.25000000  1
  V  V1493  1  0.31250000  0.81250000  0.31250000  1
  V  V1494  1  0.31250000  0.81250000  0.37500000  1
  V  V1495  1  0.31250000  0.81250000  0.43750000  1
  V  V1496  1  0.31250000  0.81250000  0.50000000  1
  V  V1497  1  0.31250000  0.81250000  0.56250000  1
  V  V1498  1  0.31250000  0.81250000  0.62500000  1
  V  V1499  1  0.31250000  0.81250000  0.68750000  1
  V  V1500  1  0.31250000  0.81250000  0.75000000  1
  Cr  Cr1501  1  0.31250000  0.81250000  0.81250000  1
  V  V1502  1  0.31250000  0.81250000  0.87500000  1
  V  V1503  1  0.31250000  0.81250000  0.93750000  1
  V  V1504  1  0.31250000  0.87500000  0.00000000  1
  V  V1505  1  0.31250000  0.87500000  0.06250000  1
  V  V1506  1  0.31250000  0.87500000  0.12500000  1
  V  V1507  1  0.31250000  0.87500000  0.18750000  1
  V  V1508  1  0.31250000  0.87500000  0.25000000  1
  V  V1509  1  0.31250000  0.87500000  0.31250000  1
  V  V1510  1  0.31250000  0.87500000  0.37500000  1
  V  V1511  1  0.31250000  0.87500000  0.43750000  1
  V  V1512  1  0.31250000  0.87500000  0.50000000  1
  V  V1513  1  0.31250000  0.87500000  0.56250000  1
  V  V1514  1  0.31250000  0.87500000  0.62500000  1
  V  V1515  1  0.31250000  0.87500000  0.68750000  1
  V  V1516  1  0.31250000  0.87500000  0.75000000  1
  V  V1517  1  0.31250000  0.87500000  0.81250000  1
  V  V1518  1  0.31250000  0.87500000  0.87500000  1
  V  V1519  1  0.31250000  0.87500000  0.93750000  1
  V  V1520  1  0.31250000  0.93750000  0.00000000  1
  V  V1521  1  0.31250000  0.93750000  0.06250000  1
  V  V1522  1  0.31250000  0.93750000  0.12500000  1
  V  V1523  1  0.31250000  0.93750000  0.18750000  1
  V  V1524  1  0.31250000  0.93750000  0.25000000  1
  V  V1525  1  0.31250000  0.93750000  0.31250000  1
  V  V1526  1  0.31250000  0.93750000  0.37500000  1
  V  V1527  1  0.31250000  0.93750000  0.43750000  1
  V  V1528  1  0.31250000  0.93750000  0.50000000  1
  V  V1529  1  0.31250000  0.93750000  0.56250000  1
  V  V1530  1  0.31250000  0.93750000  0.62500000  1
  V  V1531  1  0.31250000  0.93750000  0.68750000  1
  V  V1532  1  0.31250000  0.93750000  0.75000000  1
  V  V1533  1  0.31250000  0.93750000  0.81250000  1
  V  V1534  1  0.31250000  0.93750000  0.87500000  1
  V  V1535  1  0.31250000  0.93750000  0.93750000  1
  V  V1536  1  0.37500000  0.00000000  0.00000000  1
  V  V1537  1  0.37500000  0.00000000  0.06250000  1
  V  V1538  1  0.37500000  0.00000000  0.12500000  1
  V  V1539  1  0.37500000  0.00000000  0.18750000  1
  V  V1540  1  0.37500000  0.00000000  0.25000000  1
  V  V1541  1  0.37500000  0.00000000  0.31250000  1
  V  V1542  1  0.37500000  0.00000000  0.37500000  1
  V  V1543  1  0.37500000  0.00000000  0.43750000  1
  V  V1544  1  0.37500000  0.00000000  0.50000000  1
  V  V1545  1  0.37500000  0.00000000  0.56250000  1
  V  V1546  1  0.37500000  0.00000000  0.62500000  1
  V  V1547  1  0.37500000  0.00000000  0.68750000  1
  V  V1548  1  0.37500000  0.00000000  0.75000000  1
  V  V1549  1  0.37500000  0.00000000  0.81250000  1
  V  V1550  1  0.37500000  0.00000000  0.87500000  1
  V  V1551  1  0.37500000  0.00000000  0.93750000  1
  V  V1552  1  0.37500000  0.06250000  0.00000000  1
  V  V1553  1  0.37500000  0.06250000  0.06250000  1
  V  V1554  1  0.37500000  0.06250000  0.12500000  1
  W  W1555  1  0.37500000  0.06250000  0.18750000  1
  W  W1556  1  0.37500000  0.06250000  0.25000000  1
  V  V1557  1  0.37500000  0.06250000  0.31250000  1
  V  V1558  1  0.37500000  0.06250000  0.37500000  1
  V  V1559  1  0.37500000  0.06250000  0.43750000  1
  V  V1560  1  0.37500000  0.06250000  0.50000000  1
  V  V1561  1  0.37500000  0.06250000  0.56250000  1
  V  V1562  1  0.37500000  0.06250000  0.62500000  1
  V  V1563  1  0.37500000  0.06250000  0.68750000  1
  V  V1564  1  0.37500000  0.06250000  0.75000000  1
  V  V1565  1  0.37500000  0.06250000  0.81250000  1
  V  V1566  1  0.37500000  0.06250000  0.87500000  1
  V  V1567  1  0.37500000  0.06250000  0.93750000  1
  V  V1568  1  0.37500000  0.12500000  0.00000000  1
  V  V1569  1  0.37500000  0.12500000  0.06250000  1
  V  V1570  1  0.37500000  0.12500000  0.12500000  1
  V  V1571  1  0.37500000  0.12500000  0.18750000  1
  V  V1572  1  0.37500000  0.12500000  0.25000000  1
  V  V1573  1  0.37500000  0.12500000  0.31250000  1
  V  V1574  1  0.37500000  0.12500000  0.37500000  1
  V  V1575  1  0.37500000  0.12500000  0.43750000  1
  V  V1576  1  0.37500000  0.12500000  0.50000000  1
  V  V1577  1  0.37500000  0.12500000  0.56250000  1
  V  V1578  1  0.37500000  0.12500000  0.62500000  1
  V  V1579  1  0.37500000  0.12500000  0.68750000  1
  V  V1580  1  0.37500000  0.12500000  0.75000000  1
  V  V1581  1  0.37500000  0.12500000  0.81250000  1
  V  V1582  1  0.37500000  0.12500000  0.87500000  1
  V  V1583  1  0.37500000  0.12500000  0.93750000  1
  V  V1584  1  0.37500000  0.18750000  0.00000000  1
  V  V1585  1  0.37500000  0.18750000  0.06250000  1
  V  V1586  1  0.37500000  0.18750000  0.12500000  1
  V  V1587  1  0.37500000  0.18750000  0.18750000  1
  V  V1588  1  0.37500000  0.18750000  0.25000000  1
  W  W1589  1  0.37500000  0.18750000  0.31250000  1
  V  V1590  1  0.37500000  0.18750000  0.37500000  1
  V  V1591  1  0.37500000  0.18750000  0.43750000  1
  V  V1592  1  0.37500000  0.18750000  0.50000000  1
  V  V1593  1  0.37500000  0.18750000  0.56250000  1
  V  V1594  1  0.37500000  0.18750000  0.62500000  1
  V  V1595  1  0.37500000  0.18750000  0.68750000  1
  V  V1596  1  0.37500000  0.18750000  0.75000000  1
  V  V1597  1  0.37500000  0.18750000  0.81250000  1
  V  V1598  1  0.37500000  0.18750000  0.87500000  1
  V  V1599  1  0.37500000  0.18750000  0.93750000  1
  V  V1600  1  0.37500000  0.25000000  0.00000000  1
  V  V1601  1  0.37500000  0.25000000  0.06250000  1
  V  V1602  1  0.37500000  0.25000000  0.12500000  1
  V  V1603  1  0.37500000  0.25000000  0.18750000  1
  V  V1604  1  0.37500000  0.25000000  0.25000000  1
  V  V1605  1  0.37500000  0.25000000  0.31250000  1
  Ti  Ti1606  1  0.37500000  0.25000000  0.37500000  1
  Ti  Ti1607  1  0.37500000  0.25000000  0.43750000  1
  Zr  Zr1608  1  0.37500000  0.25000000  0.50000000  1
  Zr  Zr1609  1  0.37500000  0.25000000  0.56250000  1
  Ti  Ti1610  1  0.37500000  0.25000000  0.62500000  1
  V  V1611  1  0.37500000  0.25000000  0.68750000  1
  V  V1612  1  0.37500000  0.25000000  0.75000000  1
  V  V1613  1  0.37500000  0.25000000  0.81250000  1
  V  V1614  1  0.37500000  0.25000000  0.87500000  1
  V  V1615  1  0.37500000  0.25000000  0.93750000  1
  V  V1616  1  0.37500000  0.31250000  0.00000000  1
  V  V1617  1  0.37500000  0.31250000  0.06250000  1
  V  V1618  1  0.37500000  0.31250000  0.12500000  1
  V  V1619  1  0.37500000  0.31250000  0.18750000  1
  V  V1620  1  0.37500000  0.31250000  0.25000000  1
  V  V1621  1  0.37500000  0.31250000  0.31250000  1
  Ti  Ti1622  1  0.37500000  0.31250000  0.37500000  1
  Ti  Ti1623  1  0.37500000  0.31250000  0.43750000  1
  Zr  Zr1624  1  0.37500000  0.31250000  0.50000000  1
  Zr  Zr1625  1  0.37500000  0.31250000  0.56250000  1
  Zr  Zr1626  1  0.37500000  0.31250000  0.62500000  1
  V  V1627  1  0.37500000  0.31250000  0.68750000  1
  V  V1628  1  0.37500000  0.31250000  0.75000000  1
  V  V1629  1  0.37500000  0.31250000  0.81250000  1
  V  V1630  1  0.37500000  0.31250000  0.87500000  1
  V  V1631  1  0.37500000  0.31250000  0.93750000  1
  V  V1632  1  0.37500000  0.37500000  0.00000000  1
  V  V1633  1  0.37500000  0.37500000  0.06250000  1
  V  V1634  1  0.37500000  0.37500000  0.12500000  1
  V  V1635  1  0.37500000  0.37500000  0.18750000  1
  V  V1636  1  0.37500000  0.37500000  0.25000000  1
  V  V1637  1  0.37500000  0.37500000  0.31250000  1
  Ti  Ti1638  1  0.37500000  0.37500000  0.37500000  1
  Ti  Ti1639  1  0.37500000  0.37500000  0.43750000  1
  Zr  Zr1640  1  0.37500000  0.37500000  0.50000000  1
  Zr  Zr1641  1  0.37500000  0.37500000  0.56250000  1
  Zr  Zr1642  1  0.37500000  0.37500000  0.62500000  1
  Zr  Zr1643  1  0.37500000  0.37500000  0.68750000  1
  V  V1644  1  0.37500000  0.37500000  0.75000000  1
  W  W1645  1  0.37500000  0.37500000  0.81250000  1
  V  V1646  1  0.37500000  0.37500000  0.87500000  1
  V  V1647  1  0.37500000  0.37500000  0.93750000  1
  V  V1648  1  0.37500000  0.43750000  0.00000000  1
  W  W1649  1  0.37500000  0.43750000  0.06250000  1
  W  W1650  1  0.37500000  0.43750000  0.12500000  1
  V  V1651  1  0.37500000  0.43750000  0.18750000  1
  V  V1652  1  0.37500000  0.43750000  0.25000000  1
  V  V1653  1  0.37500000  0.43750000  0.31250000  1
  V  V1654  1  0.37500000  0.43750000  0.37500000  1
  Zr  Zr1655  1  0.37500000  0.43750000  0.43750000  1
  Zr  Zr1656  1  0.37500000  0.43750000  0.50000000  1
  Zr  Zr1657  1  0.37500000  0.43750000  0.56250000  1
  Zr  Zr1658  1  0.37500000  0.43750000  0.62500000  1
  Zr  Zr1659  1  0.37500000  0.43750000  0.68750000  1
  Ti  Ti1660  1  0.37500000  0.43750000  0.75000000  1
  V  V1661  1  0.37500000  0.43750000  0.81250000  1
  V  V1662  1  0.37500000  0.43750000  0.87500000  1
  V  V1663  1  0.37500000  0.43750000  0.93750000  1
  V  V1664  1  0.37500000  0.50000000  0.00000000  1
  V  V1665  1  0.37500000  0.50000000  0.06250000  1
  V  V1666  1  0.37500000  0.50000000  0.12500000  1
  V  V1667  1  0.37500000  0.50000000  0.18750000  1
  V  V1668  1  0.37500000  0.50000000  0.25000000  1
  V  V1669  1  0.37500000  0.50000000  0.31250000  1
  V  V1670  1  0.37500000  0.50000000  0.37500000  1
  Ti  Ti1671  1  0.37500000  0.50000000  0.43750000  1
  Zr  Zr1672  1  0.37500000  0.50000000  0.50000000  1
  Zr  Zr1673  1  0.37500000  0.50000000  0.56250000  1
  Zr  Zr1674  1  0.37500000  0.50000000  0.62500000  1
  Zr  Zr1675  1  0.37500000  0.50000000  0.68750000  1
  V  V1676  1  0.37500000  0.50000000  0.75000000  1
  V  V1677  1  0.37500000  0.50000000  0.81250000  1
  V  V1678  1  0.37500000  0.50000000  0.87500000  1
  V  V1679  1  0.37500000  0.50000000  0.93750000  1
  V  V1680  1  0.37500000  0.56250000  0.00000000  1
  V  V1681  1  0.37500000  0.56250000  0.06250000  1
  V  V1682  1  0.37500000  0.56250000  0.12500000  1
  V  V1683  1  0.37500000  0.56250000  0.18750000  1
  W  W1684  1  0.37500000  0.56250000  0.25000000  1
  V  V1685  1  0.37500000  0.56250000  0.31250000  1
  V  V1686  1  0.37500000  0.56250000  0.37500000  1
  V  V1687  1  0.37500000  0.56250000  0.43750000  1
  Ti  Ti1688  1  0.37500000  0.56250000  0.50000000  1
  Zr  Zr1689  1  0.37500000  0.56250000  0.56250000  1
  Zr  Zr1690  1  0.37500000  0.56250000  0.62500000  1
  Ti  Ti1691  1  0.37500000  0.56250000  0.68750000  1
  V  V1692  1  0.37500000  0.56250000  0.75000000  1
  V  V1693  1  0.37500000  0.56250000  0.81250000  1
  V  V1694  1  0.37500000  0.56250000  0.87500000  1
  V  V1695  1  0.37500000  0.56250000  0.93750000  1
  W  W1696  1  0.37500000  0.62500000  0.00000000  1
  V  V1697  1  0.37500000  0.62500000  0.06250000  1
  V  V1698  1  0.37500000  0.62500000  0.12500000  1
  V  V1699  1  0.37500000  0.62500000  0.18750000  1
  V  V1700  1  0.37500000  0.62500000  0.25000000  1
  V  V1701  1  0.37500000  0.62500000  0.31250000  1
  V  V1702  1  0.37500000  0.62500000  0.37500000  1
  V  V1703  1  0.37500000  0.62500000  0.43750000  1
  V  V1704  1  0.37500000  0.62500000  0.50000000  1
  V  V1705  1  0.37500000  0.62500000  0.56250000  1
  V  V1706  1  0.37500000  0.62500000  0.62500000  1
  V  V1707  1  0.37500000  0.62500000  0.68750000  1
  V  V1708  1  0.37500000  0.62500000  0.75000000  1
  V  V1709  1  0.37500000  0.62500000  0.81250000  1
  V  V1710  1  0.37500000  0.62500000  0.87500000  1
  V  V1711  1  0.37500000  0.62500000  0.93750000  1
  W  W1712  1  0.37500000  0.68750000  0.00000000  1
  V  V1713  1  0.37500000  0.68750000  0.06250000  1
  V  V1714  1  0.37500000  0.68750000  0.12500000  1
  V  V1715  1  0.37500000  0.68750000  0.18750000  1
  V  V1716  1  0.37500000  0.68750000  0.25000000  1
  V  V1717  1  0.37500000  0.68750000  0.31250000  1
  V  V1718  1  0.37500000  0.68750000  0.37500000  1
  V  V1719  1  0.37500000  0.68750000  0.43750000  1
  V  V1720  1  0.37500000  0.68750000  0.50000000  1
  V  V1721  1  0.37500000  0.68750000  0.56250000  1
  V  V1722  1  0.37500000  0.68750000  0.62500000  1
  V  V1723  1  0.37500000  0.68750000  0.68750000  1
  V  V1724  1  0.37500000  0.68750000  0.75000000  1
  W  W1725  1  0.37500000  0.68750000  0.81250000  1
  V  V1726  1  0.37500000  0.68750000  0.87500000  1
  V  V1727  1  0.37500000  0.68750000  0.93750000  1
  V  V1728  1  0.37500000  0.75000000  0.00000000  1
  V  V1729  1  0.37500000  0.75000000  0.06250000  1
  V  V1730  1  0.37500000  0.75000000  0.12500000  1
  V  V1731  1  0.37500000  0.75000000  0.18750000  1
  V  V1732  1  0.37500000  0.75000000  0.25000000  1
  V  V1733  1  0.37500000  0.75000000  0.31250000  1
  V  V1734  1  0.37500000  0.75000000  0.37500000  1
  V  V1735  1  0.37500000  0.75000000  0.43750000  1
  V  V1736  1  0.37500000  0.75000000  0.50000000  1
  V  V1737  1  0.37500000  0.75000000  0.56250000  1
  V  V1738  1  0.37500000  0.75000000  0.62500000  1
  V  V1739  1  0.37500000  0.75000000  0.68750000  1
  V  V1740  1  0.37500000  0.75000000  0.75000000  1
  V  V1741  1  0.37500000  0.75000000  0.81250000  1
  V  V1742  1  0.37500000  0.75000000  0.87500000  1
  W  W1743  1  0.37500000  0.75000000  0.93750000  1
  V  V1744  1  0.37500000  0.81250000  0.00000000  1
  V  V1745  1  0.37500000  0.81250000  0.06250000  1
  V  V1746  1  0.37500000  0.81250000  0.12500000  1
  V  V1747  1  0.37500000  0.81250000  0.18750000  1
  V  V1748  1  0.37500000  0.81250000  0.25000000  1
  V  V1749  1  0.37500000  0.81250000  0.31250000  1
  V  V1750  1  0.37500000  0.81250000  0.37500000  1
  V  V1751  1  0.37500000  0.81250000  0.43750000  1
  Cr  Cr1752  1  0.37500000  0.81250000  0.50000000  1
  V  V1753  1  0.37500000  0.81250000  0.56250000  1
  V  V1754  1  0.37500000  0.81250000  0.62500000  1
  V  V1755  1  0.37500000  0.81250000  0.68750000  1
  V  V1756  1  0.37500000  0.81250000  0.75000000  1
  V  V1757  1  0.37500000  0.81250000  0.81250000  1
  V  V1758  1  0.37500000  0.81250000  0.87500000  1
  V  V1759  1  0.37500000  0.81250000  0.93750000  1
  V  V1760  1  0.37500000  0.87500000  0.00000000  1
  V  V1761  1  0.37500000  0.87500000  0.06250000  1
  V  V1762  1  0.37500000  0.87500000  0.12500000  1
  V  V1763  1  0.37500000  0.87500000  0.18750000  1
  V  V1764  1  0.37500000  0.87500000  0.25000000  1
  V  V1765  1  0.37500000  0.87500000  0.31250000  1
  V  V1766  1  0.37500000  0.87500000  0.37500000  1
  W  W1767  1  0.37500000  0.87500000  0.43750000  1
  V  V1768  1  0.37500000  0.87500000  0.50000000  1
  V  V1769  1  0.37500000  0.87500000  0.56250000  1
  V  V1770  1  0.37500000  0.87500000  0.62500000  1
  V  V1771  1  0.37500000  0.87500000  0.68750000  1
  V  V1772  1  0.37500000  0.87500000  0.75000000  1
  W  W1773  1  0.37500000  0.87500000  0.81250000  1
  Cr  Cr1774  1  0.37500000  0.87500000  0.87500000  1
  V  V1775  1  0.37500000  0.87500000  0.93750000  1
  V  V1776  1  0.37500000  0.93750000  0.00000000  1
  V  V1777  1  0.37500000  0.93750000  0.06250000  1
  V  V1778  1  0.37500000  0.93750000  0.12500000  1
  V  V1779  1  0.37500000  0.93750000  0.18750000  1
  V  V1780  1  0.37500000  0.93750000  0.25000000  1
  V  V1781  1  0.37500000  0.93750000  0.31250000  1
  V  V1782  1  0.37500000  0.93750000  0.37500000  1
  V  V1783  1  0.37500000  0.93750000  0.43750000  1
  V  V1784  1  0.37500000  0.93750000  0.50000000  1
  W  W1785  1  0.37500000  0.93750000  0.56250000  1
  V  V1786  1  0.37500000  0.93750000  0.62500000  1
  V  V1787  1  0.37500000  0.93750000  0.68750000  1
  V  V1788  1  0.37500000  0.93750000  0.75000000  1
  V  V1789  1  0.37500000  0.93750000  0.81250000  1
  V  V1790  1  0.37500000  0.93750000  0.87500000  1
  V  V1791  1  0.37500000  0.93750000  0.93750000  1
  V  V1792  1  0.43750000  0.00000000  0.00000000  1
  V  V1793  1  0.43750000  0.00000000  0.06250000  1
  V  V1794  1  0.43750000  0.00000000  0.12500000  1
  V  V1795  1  0.43750000  0.00000000  0.18750000  1
  V  V1796  1  0.43750000  0.00000000  0.25000000  1
  V  V1797  1  0.43750000  0.00000000  0.31250000  1
  V  V1798  1  0.43750000  0.00000000  0.37500000  1
  V  V1799  1  0.43750000  0.00000000  0.43750000  1
  V  V1800  1  0.43750000  0.00000000  0.50000000  1
  V  V1801  1  0.43750000  0.00000000  0.56250000  1
  V  V1802  1  0.43750000  0.00000000  0.62500000  1
  V  V1803  1  0.43750000  0.00000000  0.68750000  1
  V  V1804  1  0.43750000  0.00000000  0.75000000  1
  V  V1805  1  0.43750000  0.00000000  0.81250000  1
  V  V1806  1  0.43750000  0.00000000  0.87500000  1
  V  V1807  1  0.43750000  0.00000000  0.93750000  1
  V  V1808  1  0.43750000  0.06250000  0.00000000  1
  V  V1809  1  0.43750000  0.06250000  0.06250000  1
  V  V1810  1  0.43750000  0.06250000  0.12500000  1
  V  V1811  1  0.43750000  0.06250000  0.18750000  1
  V  V1812  1  0.43750000  0.06250000  0.25000000  1
  V  V1813  1  0.43750000  0.06250000  0.31250000  1
  V  V1814  1  0.43750000  0.06250000  0.37500000  1
  V  V1815  1  0.43750000  0.06250000  0.43750000  1
  V  V1816  1  0.43750000  0.06250000  0.50000000  1
  V  V1817  1  0.43750000  0.06250000  0.56250000  1
  V  V1818  1  0.43750000  0.06250000  0.62500000  1
  W  W1819  1  0.43750000  0.06250000  0.68750000  1
  W  W1820  1  0.43750000  0.06250000  0.75000000  1
  V  V1821  1  0.43750000  0.06250000  0.81250000  1
  V  V1822  1  0.43750000  0.06250000  0.87500000  1
  V  V1823  1  0.43750000  0.06250000  0.93750000  1
  V  V1824  1  0.43750000  0.12500000  0.00000000  1
  V  V1825  1  0.43750000  0.12500000  0.06250000  1
  V  V1826  1  0.43750000  0.12500000  0.12500000  1
  V  V1827  1  0.43750000  0.12500000  0.18750000  1
  V  V1828  1  0.43750000  0.12500000  0.25000000  1
  W  W1829  1  0.43750000  0.12500000  0.31250000  1
  V  V1830  1  0.43750000  0.12500000  0.37500000  1
  V  V1831  1  0.43750000  0.12500000  0.43750000  1
  V  V1832  1  0.43750000  0.12500000  0.50000000  1
  V  V1833  1  0.43750000  0.12500000  0.56250000  1
  V  V1834  1  0.43750000  0.12500000  0.62500000  1
  V  V1835  1  0.43750000  0.12500000  0.68750000  1
  V  V1836  1  0.43750000  0.12500000  0.75000000  1
  V  V1837  1  0.43750000  0.12500000  0.81250000  1
  V  V1838  1  0.43750000  0.12500000  0.87500000  1
  V  V1839  1  0.43750000  0.12500000  0.93750000  1
  V  V1840  1  0.43750000  0.18750000  0.00000000  1
  V  V1841  1  0.43750000  0.18750000  0.06250000  1
  W  W1842  1  0.43750000  0.18750000  0.12500000  1
  V  V1843  1  0.43750000  0.18750000  0.18750000  1
  V  V1844  1  0.43750000  0.18750000  0.25000000  1
  V  V1845  1  0.43750000  0.18750000  0.31250000  1
  V  V1846  1  0.43750000  0.18750000  0.37500000  1
  V  V1847  1  0.43750000  0.18750000  0.43750000  1
  V  V1848  1  0.43750000  0.18750000  0.50000000  1
  V  V1849  1  0.43750000  0.18750000  0.56250000  1
  V  V1850  1  0.43750000  0.18750000  0.62500000  1
  V  V1851  1  0.43750000  0.18750000  0.68750000  1
  V  V1852  1  0.43750000  0.18750000  0.75000000  1
  V  V1853  1  0.43750000  0.18750000  0.81250000  1
  V  V1854  1  0.43750000  0.18750000  0.87500000  1
  V  V1855  1  0.43750000  0.18750000  0.93750000  1
  V  V1856  1  0.43750000  0.25000000  0.00000000  1
  V  V1857  1  0.43750000  0.25000000  0.06250000  1
  V  V1858  1  0.43750000  0.25000000  0.12500000  1
  V  V1859  1  0.43750000  0.25000000  0.18750000  1
  V  V1860  1  0.43750000  0.25000000  0.25000000  1
  V  V1861  1  0.43750000  0.25000000  0.31250000  1
  V  V1862  1  0.43750000  0.25000000  0.37500000  1
  Ti  Ti1863  1  0.43750000  0.25000000  0.43750000  1
  Ti  Ti1864  1  0.43750000  0.25000000  0.50000000  1
  Ti  Ti1865  1  0.43750000  0.25000000  0.56250000  1
  Ti  Ti1866  1  0.43750000  0.25000000  0.62500000  1
  V  V1867  1  0.43750000  0.25000000  0.68750000  1
  V  V1868  1  0.43750000  0.25000000  0.75000000  1
  V  V1869  1  0.43750000  0.25000000  0.81250000  1
  V  V1870  1  0.43750000  0.25000000  0.87500000  1
  V  V1871  1  0.43750000  0.25000000  0.93750000  1
  V  V1872  1  0.43750000  0.31250000  0.00000000  1
  V  V1873  1  0.43750000  0.31250000  0.06250000  1
  V  V1874  1  0.43750000  0.31250000  0.12500000  1
  V  V1875  1  0.43750000  0.31250000  0.18750000  1
  V  V1876  1  0.43750000  0.31250000  0.25000000  1
  V  V1877  1  0.43750000  0.31250000  0.31250000  1
  Ti  Ti1878  1  0.43750000  0.31250000  0.37500000  1
  Ti  Ti1879  1  0.43750000  0.31250000  0.43750000  1
  Zr  Zr1880  1  0.43750000  0.31250000  0.50000000  1
  Zr  Zr1881  1  0.43750000  0.31250000  0.56250000  1
  Zr  Zr1882  1  0.43750000  0.31250000  0.62500000  1
  Ti  Ti1883  1  0.43750000  0.31250000  0.68750000  1
  V  V1884  1  0.43750000  0.31250000  0.75000000  1
  V  V1885  1  0.43750000  0.31250000  0.81250000  1
  V  V1886  1  0.43750000  0.31250000  0.87500000  1
  V  V1887  1  0.43750000  0.31250000  0.93750000  1
  V  V1888  1  0.43750000  0.37500000  0.00000000  1
  V  V1889  1  0.43750000  0.37500000  0.06250000  1
  V  V1890  1  0.43750000  0.37500000  0.12500000  1
  V  V1891  1  0.43750000  0.37500000  0.18750000  1
  V  V1892  1  0.43750000  0.37500000  0.25000000  1
  V  V1893  1  0.43750000  0.37500000  0.31250000  1
  Ti  Ti1894  1  0.43750000  0.37500000  0.37500000  1
  Zr  Zr1895  1  0.43750000  0.37500000  0.43750000  1
  Zr  Zr1896  1  0.43750000  0.37500000  0.50000000  1
  Zr  Zr1897  1  0.43750000  0.37500000  0.56250000  1
  Zr  Zr1898  1  0.43750000  0.37500000  0.62500000  1
  Zr  Zr1899  1  0.43750000  0.37500000  0.68750000  1
  Ti  Ti1900  1  0.43750000  0.37500000  0.75000000  1
  V  V1901  1  0.43750000  0.37500000  0.81250000  1
  W  W1902  1  0.43750000  0.37500000  0.87500000  1
  V  V1903  1  0.43750000  0.37500000  0.93750000  1
  V  V1904  1  0.43750000  0.43750000  0.00000000  1
  V  V1905  1  0.43750000  0.43750000  0.06250000  1
  V  V1906  1  0.43750000  0.43750000  0.12500000  1
  V  V1907  1  0.43750000  0.43750000  0.18750000  1
  V  V1908  1  0.43750000  0.43750000  0.25000000  1
  V  V1909  1  0.43750000  0.43750000  0.31250000  1
  Ti  Ti1910  1  0.43750000  0.43750000  0.37500000  1
  Zr  Zr1911  1  0.43750000  0.43750000  0.43750000  1
  Zr  Zr1912  1  0.43750000  0.43750000  0.50000000  1
  Zr  Zr1913  1  0.43750000  0.43750000  0.56250000  1
  Zr  Zr1914  1  0.43750000  0.43750000  0.62500000  1
  Zr  Zr1915  1  0.43750000  0.43750000  0.68750000  1
  Ti  Ti1916  1  0.43750000  0.43750000  0.75000000  1
  V  V1917  1  0.43750000  0.43750000  0.81250000  1
  V  V1918  1  0.43750000  0.43750000  0.87500000  1
  V  V1919  1  0.43750000  0.43750000  0.93750000  1
  V  V1920  1  0.43750000  0.50000000  0.00000000  1
  W  W1921  1  0.43750000  0.50000000  0.06250000  1
  V  V1922  1  0.43750000  0.50000000  0.12500000  1
  V  V1923  1  0.43750000  0.50000000  0.18750000  1
  V  V1924  1  0.43750000  0.50000000  0.25000000  1
  V  V1925  1  0.43750000  0.50000000  0.31250000  1
  V  V1926  1  0.43750000  0.50000000  0.37500000  1
  Ti  Ti1927  1  0.43750000  0.50000000  0.43750000  1
  Zr  Zr1928  1  0.43750000  0.50000000  0.50000000  1
  Zr  Zr1929  1  0.43750000  0.50000000  0.56250000  1
  Zr  Zr1930  1  0.43750000  0.50000000  0.62500000  1
  Zr  Zr1931  1  0.43750000  0.50000000  0.68750000  1
  Ti  Ti1932  1  0.43750000  0.50000000  0.75000000  1
  V  V1933  1  0.43750000  0.50000000  0.81250000  1
  V  V1934  1  0.43750000  0.50000000  0.87500000  1
  V  V1935  1  0.43750000  0.50000000  0.93750000  1
  V  V1936  1  0.43750000  0.56250000  0.00000000  1
  V  V1937  1  0.43750000  0.56250000  0.06250000  1
  V  V1938  1  0.43750000  0.56250000  0.12500000  1
  V  V1939  1  0.43750000  0.56250000  0.18750000  1
  V  V1940  1  0.43750000  0.56250000  0.25000000  1
  V  V1941  1  0.43750000  0.56250000  0.31250000  1
  V  V1942  1  0.43750000  0.56250000  0.37500000  1
  Ti  Ti1943  1  0.43750000  0.56250000  0.43750000  1
  Ti  Ti1944  1  0.43750000  0.56250000  0.50000000  1
  Zr  Zr1945  1  0.43750000  0.56250000  0.56250000  1
  Zr  Zr1946  1  0.43750000  0.56250000  0.62500000  1
  Zr  Zr1947  1  0.43750000  0.56250000  0.68750000  1
  Ti  Ti1948  1  0.43750000  0.56250000  0.75000000  1
  V  V1949  1  0.43750000  0.56250000  0.81250000  1
  V  V1950  1  0.43750000  0.56250000  0.87500000  1
  V  V1951  1  0.43750000  0.56250000  0.93750000  1
  W  W1952  1  0.43750000  0.62500000  0.00000000  1
  V  V1953  1  0.43750000  0.62500000  0.06250000  1
  V  V1954  1  0.43750000  0.62500000  0.12500000  1
  V  V1955  1  0.43750000  0.62500000  0.18750000  1
  W  W1956  1  0.43750000  0.62500000  0.25000000  1
  V  V1957  1  0.43750000  0.62500000  0.31250000  1
  V  V1958  1  0.43750000  0.62500000  0.37500000  1
  V  V1959  1  0.43750000  0.62500000  0.43750000  1
  Ti  Ti1960  1  0.43750000  0.62500000  0.50000000  1
  Ti  Ti1961  1  0.43750000  0.62500000  0.56250000  1
  Zr  Zr1962  1  0.43750000  0.62500000  0.62500000  1
  Ti  Ti1963  1  0.43750000  0.62500000  0.68750000  1
  V  V1964  1  0.43750000  0.62500000  0.75000000  1
  V  V1965  1  0.43750000  0.62500000  0.81250000  1
  V  V1966  1  0.43750000  0.62500000  0.87500000  1
  V  V1967  1  0.43750000  0.62500000  0.93750000  1
  V  V1968  1  0.43750000  0.68750000  0.00000000  1
  V  V1969  1  0.43750000  0.68750000  0.06250000  1
  V  V1970  1  0.43750000  0.68750000  0.12500000  1
  V  V1971  1  0.43750000  0.68750000  0.18750000  1
  V  V1972  1  0.43750000  0.68750000  0.25000000  1
  V  V1973  1  0.43750000  0.68750000  0.31250000  1
  V  V1974  1  0.43750000  0.68750000  0.37500000  1
  V  V1975  1  0.43750000  0.68750000  0.43750000  1
  V  V1976  1  0.43750000  0.68750000  0.50000000  1
  V  V1977  1  0.43750000  0.68750000  0.56250000  1
  V  V1978  1  0.43750000  0.68750000  0.62500000  1
  Ti  Ti1979  1  0.43750000  0.68750000  0.68750000  1
  V  V1980  1  0.43750000  0.68750000  0.75000000  1
  W  W1981  1  0.43750000  0.68750000  0.81250000  1
  V  V1982  1  0.43750000  0.68750000  0.87500000  1
  V  V1983  1  0.43750000  0.68750000  0.93750000  1
  V  V1984  1  0.43750000  0.75000000  0.00000000  1
  V  V1985  1  0.43750000  0.75000000  0.06250000  1
  V  V1986  1  0.43750000  0.75000000  0.12500000  1
  V  V1987  1  0.43750000  0.75000000  0.18750000  1
  V  V1988  1  0.43750000  0.75000000  0.25000000  1
  V  V1989  1  0.43750000  0.75000000  0.31250000  1
  V  V1990  1  0.43750000  0.75000000  0.37500000  1
  V  V1991  1  0.43750000  0.75000000  0.43750000  1
  V  V1992  1  0.43750000  0.75000000  0.50000000  1
  V  V1993  1  0.43750000  0.75000000  0.56250000  1
  V  V1994  1  0.43750000  0.75000000  0.62500000  1
  V  V1995  1  0.43750000  0.75000000  0.68750000  1
  V  V1996  1  0.43750000  0.75000000  0.75000000  1
  V  V1997  1  0.43750000  0.75000000  0.81250000  1
  V  V1998  1  0.43750000  0.75000000  0.87500000  1
  V  V1999  1  0.43750000  0.75000000  0.93750000  1
  V  V2000  1  0.43750000  0.81250000  0.00000000  1
  V  V2001  1  0.43750000  0.81250000  0.06250000  1
  V  V2002  1  0.43750000  0.81250000  0.12500000  1
  V  V2003  1  0.43750000  0.81250000  0.18750000  1
  V  V2004  1  0.43750000  0.81250000  0.25000000  1
  V  V2005  1  0.43750000  0.81250000  0.31250000  1
  V  V2006  1  0.43750000  0.81250000  0.37500000  1
  V  V2007  1  0.43750000  0.81250000  0.43750000  1
  V  V2008  1  0.43750000  0.81250000  0.50000000  1
  V  V2009  1  0.43750000  0.81250000  0.56250000  1
  V  V2010  1  0.43750000  0.81250000  0.62500000  1
  V  V2011  1  0.43750000  0.81250000  0.68750000  1
  V  V2012  1  0.43750000  0.81250000  0.75000000  1
  V  V2013  1  0.43750000  0.81250000  0.81250000  1
  V  V2014  1  0.43750000  0.81250000  0.87500000  1
  V  V2015  1  0.43750000  0.81250000  0.93750000  1
  V  V2016  1  0.43750000  0.87500000  0.00000000  1
  V  V2017  1  0.43750000  0.87500000  0.06250000  1
  V  V2018  1  0.43750000  0.87500000  0.12500000  1
  V  V2019  1  0.43750000  0.87500000  0.18750000  1
  V  V2020  1  0.43750000  0.87500000  0.25000000  1
  V  V2021  1  0.43750000  0.87500000  0.31250000  1
  V  V2022  1  0.43750000  0.87500000  0.37500000  1
  V  V2023  1  0.43750000  0.87500000  0.43750000  1
  V  V2024  1  0.43750000  0.87500000  0.50000000  1
  V  V2025  1  0.43750000  0.87500000  0.56250000  1
  W  W2026  1  0.43750000  0.87500000  0.62500000  1
  V  V2027  1  0.43750000  0.87500000  0.68750000  1
  V  V2028  1  0.43750000  0.87500000  0.75000000  1
  V  V2029  1  0.43750000  0.87500000  0.81250000  1
  V  V2030  1  0.43750000  0.87500000  0.87500000  1
  V  V2031  1  0.43750000  0.87500000  0.93750000  1
  Cr  Cr2032  1  0.43750000  0.93750000  0.00000000  1
  V  V2033  1  0.43750000  0.93750000  0.06250000  1
  V  V2034  1  0.43750000  0.93750000  0.12500000  1
  V  V2035  1  0.43750000  0.93750000  0.18750000  1
  V  V2036  1  0.43750000  0.93750000  0.25000000  1
  V  V2037  1  0.43750000  0.93750000  0.31250000  1
  W  W2038  1  0.43750000  0.93750000  0.37500000  1
  V  V2039  1  0.43750000  0.93750000  0.43750000  1
  V  V2040  1  0.43750000  0.93750000  0.50000000  1
  V  V2041  1  0.43750000  0.93750000  0.56250000  1
  V  V2042  1  0.43750000  0.93750000  0.62500000  1
  W  W2043  1  0.43750000  0.93750000  0.68750000  1
  V  V2044  1  0.43750000  0.93750000  0.75000000  1
  V  V2045  1  0.43750000  0.93750000  0.81250000  1
  V  V2046  1  0.43750000  0.93750000  0.87500000  1
  V  V2047  1  0.43750000  0.93750000  0.93750000  1
  V  V2048  1  0.50000000  0.00000000  0.00000000  1
  V  V2049  1  0.50000000  0.00000000  0.06250000  1
  Cr  Cr2050  1  0.50000000  0.00000000  0.12500000  1
  V  V2051  1  0.50000000  0.00000000  0.18750000  1
  Cr  Cr2052  1  0.50000000  0.00000000  0.25000000  1
  W  W2053  1  0.50000000  0.00000000  0.31250000  1
  V  V2054  1  0.50000000  0.00000000  0.37500000  1
  V  V2055  1  0.50000000  0.00000000  0.43750000  1
  V  V2056  1  0.50000000  0.00000000  0.50000000  1
  V  V2057  1  0.50000000  0.00000000  0.56250000  1
  V  V2058  1  0.50000000  0.00000000  0.62500000  1
  V  V2059  1  0.50000000  0.00000000  0.68750000  1
  V  V2060  1  0.50000000  0.00000000  0.75000000  1
  V  V2061  1  0.50000000  0.00000000  0.81250000  1
  V  V2062  1  0.50000000  0.00000000  0.87500000  1
  V  V2063  1  0.50000000  0.00000000  0.93750000  1
  V  V2064  1  0.50000000  0.06250000  0.00000000  1
  V  V2065  1  0.50000000  0.06250000  0.06250000  1
  V  V2066  1  0.50000000  0.06250000  0.12500000  1
  V  V2067  1  0.50000000  0.06250000  0.18750000  1
  V  V2068  1  0.50000000  0.06250000  0.25000000  1
  V  V2069  1  0.50000000  0.06250000  0.31250000  1
  V  V2070  1  0.50000000  0.06250000  0.37500000  1
  V  V2071  1  0.50000000  0.06250000  0.43750000  1
  V  V2072  1  0.50000000  0.06250000  0.50000000  1
  W  W2073  1  0.50000000  0.06250000  0.56250000  1
  V  V2074  1  0.50000000  0.06250000  0.62500000  1
  V  V2075  1  0.50000000  0.06250000  0.68750000  1
  W  W2076  1  0.50000000  0.06250000  0.75000000  1
  V  V2077  1  0.50000000  0.06250000  0.81250000  1
  W  W2078  1  0.50000000  0.06250000  0.87500000  1
  Cr  Cr2079  1  0.50000000  0.06250000  0.93750000  1
  V  V2080  1  0.50000000  0.12500000  0.00000000  1
  W  W2081  1  0.50000000  0.12500000  0.06250000  1
  V  V2082  1  0.50000000  0.12500000  0.12500000  1
  V  V2083  1  0.50000000  0.12500000  0.18750000  1
  V  V2084  1  0.50000000  0.12500000  0.25000000  1
  W  W2085  1  0.50000000  0.12500000  0.31250000  1
  V  V2086  1  0.50000000  0.12500000  0.37500000  1
  Cr  Cr2087  1  0.50000000  0.12500000  0.43750000  1
  V  V2088  1  0.50000000  0.12500000  0.50000000  1
  V  V2089  1  0.50000000  0.12500000  0.56250000  1
  V  V2090  1  0.50000000  0.12500000  0.62500000  1
  V  V2091  1  0.50000000  0.12500000  0.68750000  1
  V  V2092  1  0.50000000  0.12500000  0.75000000  1
  V  V2093  1  0.50000000  0.12500000  0.81250000  1
  V  V2094  1  0.50000000  0.12500000  0.87500000  1
  V  V2095  1  0.50000000  0.12500000  0.93750000  1
  V  V2096  1  0.50000000  0.18750000  0.00000000  1
  V  V2097  1  0.50000000  0.18750000  0.06250000  1
  V  V2098  1  0.50000000  0.18750000  0.12500000  1
  V  V2099  1  0.50000000  0.18750000  0.18750000  1
  V  V2100  1  0.50000000  0.18750000  0.25000000  1
  V  V2101  1  0.50000000  0.18750000  0.31250000  1
  V  V2102  1  0.50000000  0.18750000  0.37500000  1
  V  V2103  1  0.50000000  0.18750000  0.43750000  1
  V  V2104  1  0.50000000  0.18750000  0.50000000  1
  V  V2105  1  0.50000000  0.18750000  0.56250000  1
  V  V2106  1  0.50000000  0.18750000  0.62500000  1
  V  V2107  1  0.50000000  0.18750000  0.68750000  1
  V  V2108  1  0.50000000  0.18750000  0.75000000  1
  V  V2109  1  0.50000000  0.18750000  0.81250000  1
  V  V2110  1  0.50000000  0.18750000  0.87500000  1
  V  V2111  1  0.50000000  0.18750000  0.93750000  1
  V  V2112  1  0.50000000  0.25000000  0.00000000  1
  V  V2113  1  0.50000000  0.25000000  0.06250000  1
  V  V2114  1  0.50000000  0.25000000  0.12500000  1
  V  V2115  1  0.50000000  0.25000000  0.18750000  1
  V  V2116  1  0.50000000  0.25000000  0.25000000  1
  V  V2117  1  0.50000000  0.25000000  0.31250000  1
  V  V2118  1  0.50000000  0.25000000  0.37500000  1
  V  V2119  1  0.50000000  0.25000000  0.43750000  1
  V  V2120  1  0.50000000  0.25000000  0.50000000  1
  V  V2121  1  0.50000000  0.25000000  0.56250000  1
  Ti  Ti2122  1  0.50000000  0.25000000  0.62500000  1
  Ti  Ti2123  1  0.50000000  0.25000000  0.68750000  1
  V  V2124  1  0.50000000  0.25000000  0.75000000  1
  V  V2125  1  0.50000000  0.25000000  0.81250000  1
  V  V2126  1  0.50000000  0.25000000  0.87500000  1
  V  V2127  1  0.50000000  0.25000000  0.93750000  1
  V  V2128  1  0.50000000  0.31250000  0.00000000  1
  V  V2129  1  0.50000000  0.31250000  0.06250000  1
  V  V2130  1  0.50000000  0.31250000  0.12500000  1
  W  W2131  1  0.50000000  0.31250000  0.18750000  1
  V  V2132  1  0.50000000  0.31250000  0.25000000  1
  V  V2133  1  0.50000000  0.31250000  0.31250000  1
  V  V2134  1  0.50000000  0.31250000  0.37500000  1
  Ti  Ti2135  1  0.50000000  0.31250000  0.43750000  1
  Zr  Zr2136  1  0.50000000  0.31250000  0.50000000  1
  Zr  Zr2137  1  0.50000000  0.31250000  0.56250000  1
  Zr  Zr2138  1  0.50000000  0.31250000  0.62500000  1
  Ti  Ti2139  1  0.50000000  0.31250000  0.68750000  1
  V  V2140  1  0.50000000  0.31250000  0.75000000  1
  V  V2141  1  0.50000000  0.31250000  0.81250000  1
  V  V2142  1  0.50000000  0.31250000  0.87500000  1
  V  V2143  1  0.50000000  0.31250000  0.93750000  1
  W  W2144  1  0.50000000  0.37500000  0.00000000  1
  V  V2145  1  0.50000000  0.37500000  0.06250000  1
  V  V2146  1  0.50000000  0.37500000  0.12500000  1
  V  V2147  1  0.50000000  0.37500000  0.18750000  1
  W  W2148  1  0.50000000  0.37500000  0.25000000  1
  V  V2149  1  0.50000000  0.37500000  0.31250000  1
  V  V2150  1  0.50000000  0.37500000  0.37500000  1
  Zr  Zr2151  1  0.50000000  0.37500000  0.43750000  1
  Zr  Zr2152  1  0.50000000  0.37500000  0.50000000  1
  Zr  Zr2153  1  0.50000000  0.37500000  0.56250000  1
  Zr  Zr2154  1  0.50000000  0.37500000  0.62500000  1
  Zr  Zr2155  1  0.50000000  0.37500000  0.68750000  1
  Ti  Ti2156  1  0.50000000  0.37500000  0.75000000  1
  V  V2157  1  0.50000000  0.37500000  0.81250000  1
  V  V2158  1  0.50000000  0.37500000  0.87500000  1
  W  W2159  1  0.50000000  0.37500000  0.93750000  1
  V  V2160  1  0.50000000  0.43750000  0.00000000  1
  V  V2161  1  0.50000000  0.43750000  0.06250000  1
  V  V2162  1  0.50000000  0.43750000  0.12500000  1
  V  V2163  1  0.50000000  0.43750000  0.18750000  1
  V  V2164  1  0.50000000  0.43750000  0.25000000  1
  V  V2165  1  0.50000000  0.43750000  0.31250000  1
  Ti  Ti2166  1  0.50000000  0.43750000  0.37500000  1
  Zr  Zr2167  1  0.50000000  0.43750000  0.43750000  1
  Zr  Zr2168  1  0.50000000  0.43750000  0.50000000  1
  Zr  Zr2169  1  0.50000000  0.43750000  0.56250000  1
  Zr  Zr2170  1  0.50000000  0.43750000  0.62500000  1
  Zr  Zr2171  1  0.50000000  0.43750000  0.68750000  1
  Ti  Ti2172  1  0.50000000  0.43750000  0.75000000  1
  V  V2173  1  0.50000000  0.43750000  0.81250000  1
  W  W2174  1  0.50000000  0.43750000  0.87500000  1
  V  V2175  1  0.50000000  0.43750000  0.93750000  1
  V  V2176  1  0.50000000  0.50000000  0.00000000  1
  V  V2177  1  0.50000000  0.50000000  0.06250000  1
  V  V2178  1  0.50000000  0.50000000  0.12500000  1
  V  V2179  1  0.50000000  0.50000000  0.18750000  1
  V  V2180  1  0.50000000  0.50000000  0.25000000  1
  V  V2181  1  0.50000000  0.50000000  0.31250000  1
  V  V2182  1  0.50000000  0.50000000  0.37500000  1
  Zr  Zr2183  1  0.50000000  0.50000000  0.43750000  1
  Zr  Zr2184  1  0.50000000  0.50000000  0.50000000  1
  Zr  Zr2185  1  0.50000000  0.50000000  0.56250000  1
  Zr  Zr2186  1  0.50000000  0.50000000  0.62500000  1
  Zr  Zr2187  1  0.50000000  0.50000000  0.68750000  1
  Ti  Ti2188  1  0.50000000  0.50000000  0.75000000  1
  Ti  Ti2189  1  0.50000000  0.50000000  0.81250000  1
  V  V2190  1  0.50000000  0.50000000  0.87500000  1
  V  V2191  1  0.50000000  0.50000000  0.93750000  1
  V  V2192  1  0.50000000  0.56250000  0.00000000  1
  V  V2193  1  0.50000000  0.56250000  0.06250000  1
  V  V2194  1  0.50000000  0.56250000  0.12500000  1
  V  V2195  1  0.50000000  0.56250000  0.18750000  1
  V  V2196  1  0.50000000  0.56250000  0.25000000  1
  V  V2197  1  0.50000000  0.56250000  0.31250000  1
  V  V2198  1  0.50000000  0.56250000  0.37500000  1
  Ti  Ti2199  1  0.50000000  0.56250000  0.43750000  1
  Zr  Zr2200  1  0.50000000  0.56250000  0.50000000  1
  Zr  Zr2201  1  0.50000000  0.56250000  0.56250000  1
  Zr  Zr2202  1  0.50000000  0.56250000  0.62500000  1
  Zr  Zr2203  1  0.50000000  0.56250000  0.68750000  1
  Zr  Zr2204  1  0.50000000  0.56250000  0.75000000  1
  Ti  Ti2205  1  0.50000000  0.56250000  0.81250000  1
  V  V2206  1  0.50000000  0.56250000  0.87500000  1
  V  V2207  1  0.50000000  0.56250000  0.93750000  1
  V  V2208  1  0.50000000  0.62500000  0.00000000  1
  V  V2209  1  0.50000000  0.62500000  0.06250000  1
  V  V2210  1  0.50000000  0.62500000  0.12500000  1
  V  V2211  1  0.50000000  0.62500000  0.18750000  1
  V  V2212  1  0.50000000  0.62500000  0.25000000  1
  V  V2213  1  0.50000000  0.62500000  0.31250000  1
  V  V2214  1  0.50000000  0.62500000  0.37500000  1
  V  V2215  1  0.50000000  0.62500000  0.43750000  1
  Ti  Ti2216  1  0.50000000  0.62500000  0.50000000  1
  Ti  Ti2217  1  0.50000000  0.62500000  0.56250000  1
  Zr  Zr2218  1  0.50000000  0.62500000  0.62500000  1
  Zr  Zr2219  1  0.50000000  0.62500000  0.68750000  1
  Zr  Zr2220  1  0.50000000  0.62500000  0.75000000  1
  V  V2221  1  0.50000000  0.62500000  0.81250000  1
  V  V2222  1  0.50000000  0.62500000  0.87500000  1
  V  V2223  1  0.50000000  0.62500000  0.93750000  1
  V  V2224  1  0.50000000  0.68750000  0.00000000  1
  V  V2225  1  0.50000000  0.68750000  0.06250000  1
  V  V2226  1  0.50000000  0.68750000  0.12500000  1
  V  V2227  1  0.50000000  0.68750000  0.18750000  1
  V  V2228  1  0.50000000  0.68750000  0.25000000  1
  V  V2229  1  0.50000000  0.68750000  0.31250000  1
  V  V2230  1  0.50000000  0.68750000  0.37500000  1
  V  V2231  1  0.50000000  0.68750000  0.43750000  1
  V  V2232  1  0.50000000  0.68750000  0.50000000  1
  Ti  Ti2233  1  0.50000000  0.68750000  0.56250000  1
  Ti  Ti2234  1  0.50000000  0.68750000  0.62500000  1
  Ti  Ti2235  1  0.50000000  0.68750000  0.68750000  1
  Ti  Ti2236  1  0.50000000  0.68750000  0.75000000  1
  V  V2237  1  0.50000000  0.68750000  0.81250000  1
  V  V2238  1  0.50000000  0.68750000  0.87500000  1
  V  V2239  1  0.50000000  0.68750000  0.93750000  1
  V  V2240  1  0.50000000  0.75000000  0.00000000  1
  Cr  Cr2241  1  0.50000000  0.75000000  0.06250000  1
  V  V2242  1  0.50000000  0.75000000  0.12500000  1
  V  V2243  1  0.50000000  0.75000000  0.18750000  1
  V  V2244  1  0.50000000  0.75000000  0.25000000  1
  V  V2245  1  0.50000000  0.75000000  0.31250000  1
  W  W2246  1  0.50000000  0.75000000  0.37500000  1
  V  V2247  1  0.50000000  0.75000000  0.43750000  1
  V  V2248  1  0.50000000  0.75000000  0.50000000  1
  V  V2249  1  0.50000000  0.75000000  0.56250000  1
  V  V2250  1  0.50000000  0.75000000  0.62500000  1
  V  V2251  1  0.50000000  0.75000000  0.68750000  1
  V  V2252  1  0.50000000  0.75000000  0.75000000  1
  V  V2253  1  0.50000000  0.75000000  0.81250000  1
  V  V2254  1  0.50000000  0.75000000  0.87500000  1
  W  W2255  1  0.50000000  0.75000000  0.93750000  1
  V  V2256  1  0.50000000  0.81250000  0.00000000  1
  V  V2257  1  0.50000000  0.81250000  0.06250000  1
  V  V2258  1  0.50000000  0.81250000  0.12500000  1
  V  V2259  1  0.50000000  0.81250000  0.18750000  1
  V  V2260  1  0.50000000  0.81250000  0.25000000  1
  V  V2261  1  0.50000000  0.81250000  0.31250000  1
  V  V2262  1  0.50000000  0.81250000  0.37500000  1
  V  V2263  1  0.50000000  0.81250000  0.43750000  1
  V  V2264  1  0.50000000  0.81250000  0.50000000  1
  W  W2265  1  0.50000000  0.81250000  0.56250000  1
  V  V2266  1  0.50000000  0.81250000  0.62500000  1
  V  V2267  1  0.50000000  0.81250000  0.68750000  1
  V  V2268  1  0.50000000  0.81250000  0.75000000  1
  V  V2269  1  0.50000000  0.81250000  0.81250000  1
  V  V2270  1  0.50000000  0.81250000  0.87500000  1
  V  V2271  1  0.50000000  0.81250000  0.93750000  1
  V  V2272  1  0.50000000  0.87500000  0.00000000  1
  V  V2273  1  0.50000000  0.87500000  0.06250000  1
  V  V2274  1  0.50000000  0.87500000  0.12500000  1
  V  V2275  1  0.50000000  0.87500000  0.18750000  1
  V  V2276  1  0.50000000  0.87500000  0.25000000  1
  V  V2277  1  0.50000000  0.87500000  0.31250000  1
  Cr  Cr2278  1  0.50000000  0.87500000  0.37500000  1
  V  V2279  1  0.50000000  0.87500000  0.43750000  1
  V  V2280  1  0.50000000  0.87500000  0.50000000  1
  V  V2281  1  0.50000000  0.87500000  0.56250000  1
  V  V2282  1  0.50000000  0.87500000  0.62500000  1
  V  V2283  1  0.50000000  0.87500000  0.68750000  1
  V  V2284  1  0.50000000  0.87500000  0.75000000  1
  V  V2285  1  0.50000000  0.87500000  0.81250000  1
  V  V2286  1  0.50000000  0.87500000  0.87500000  1
  W  W2287  1  0.50000000  0.87500000  0.93750000  1
  V  V2288  1  0.50000000  0.93750000  0.00000000  1
  V  V2289  1  0.50000000  0.93750000  0.06250000  1
  V  V2290  1  0.50000000  0.93750000  0.12500000  1
  V  V2291  1  0.50000000  0.93750000  0.18750000  1
  V  V2292  1  0.50000000  0.93750000  0.25000000  1
  V  V2293  1  0.50000000  0.93750000  0.31250000  1
  V  V2294  1  0.50000000  0.93750000  0.37500000  1
  V  V2295  1  0.50000000  0.93750000  0.43750000  1
  V  V2296  1  0.50000000  0.93750000  0.50000000  1
  V  V2297  1  0.50000000  0.93750000  0.56250000  1
  V  V2298  1  0.50000000  0.93750000  0.62500000  1
  V  V2299  1  0.50000000  0.93750000  0.68750000  1
  V  V2300  1  0.50000000  0.93750000  0.75000000  1
  V  V2301  1  0.50000000  0.93750000  0.81250000  1
  V  V2302  1  0.50000000  0.93750000  0.87500000  1
  V  V2303  1  0.50000000  0.93750000  0.93750000  1
  V  V2304  1  0.56250000  0.00000000  0.00000000  1
  V  V2305  1  0.56250000  0.00000000  0.06250000  1
  V  V2306  1  0.56250000  0.00000000  0.12500000  1
  V  V2307  1  0.56250000  0.00000000  0.18750000  1
  V  V2308  1  0.56250000  0.00000000  0.25000000  1
  V  V2309  1  0.56250000  0.00000000  0.31250000  1
  V  V2310  1  0.56250000  0.00000000  0.37500000  1
  V  V2311  1  0.56250000  0.00000000  0.43750000  1
  V  V2312  1  0.56250000  0.00000000  0.50000000  1
  V  V2313  1  0.56250000  0.00000000  0.56250000  1
  V  V2314  1  0.56250000  0.00000000  0.62500000  1
  V  V2315  1  0.56250000  0.00000000  0.68750000  1
  V  V2316  1  0.56250000  0.00000000  0.75000000  1
  V  V2317  1  0.56250000  0.00000000  0.81250000  1
  V  V2318  1  0.56250000  0.00000000  0.87500000  1
  V  V2319  1  0.56250000  0.00000000  0.93750000  1
  V  V2320  1  0.56250000  0.06250000  0.00000000  1
  V  V2321  1  0.56250000  0.06250000  0.06250000  1
  V  V2322  1  0.56250000  0.06250000  0.12500000  1
  V  V2323  1  0.56250000  0.06250000  0.18750000  1
  W  W2324  1  0.56250000  0.06250000  0.25000000  1
  V  V2325  1  0.56250000  0.06250000  0.31250000  1
  V  V2326  1  0.56250000  0.06250000  0.37500000  1
  V  V2327  1  0.56250000  0.06250000  0.43750000  1
  V  V2328  1  0.56250000  0.06250000  0.50000000  1
  V  V2329  1  0.56250000  0.06250000  0.56250000  1
  V  V2330  1  0.56250000  0.06250000  0.62500000  1
  V  V2331  1  0.56250000  0.06250000  0.68750000  1
  V  V2332  1  0.56250000  0.06250000  0.75000000  1
  V  V2333  1  0.56250000  0.06250000  0.81250000  1
  W  W2334  1  0.56250000  0.06250000  0.87500000  1
  V  V2335  1  0.56250000  0.06250000  0.93750000  1
  V  V2336  1  0.56250000  0.12500000  0.00000000  1
  V  V2337  1  0.56250000  0.12500000  0.06250000  1
  V  V2338  1  0.56250000  0.12500000  0.12500000  1
  V  V2339  1  0.56250000  0.12500000  0.18750000  1
  V  V2340  1  0.56250000  0.12500000  0.25000000  1
  V  V2341  1  0.56250000  0.12500000  0.31250000  1
  V  V2342  1  0.56250000  0.12500000  0.37500000  1
  V  V2343  1  0.56250000  0.12500000  0.43750000  1
  V  V2344  1  0.56250000  0.12500000  0.50000000  1
  V  V2345  1  0.56250000  0.12500000  0.56250000  1
  V  V2346  1  0.56250000  0.12500000  0.62500000  1
  V  V2347  1  0.56250000  0.12500000  0.68750000  1
  V  V2348  1  0.56250000  0.12500000  0.75000000  1
  V  V2349  1  0.56250000  0.12500000  0.81250000  1
  V  V2350  1  0.56250000  0.12500000  0.87500000  1
  V  V2351  1  0.56250000  0.12500000  0.93750000  1
  W  W2352  1  0.56250000  0.18750000  0.00000000  1
  V  V2353  1  0.56250000  0.18750000  0.06250000  1
  V  V2354  1  0.56250000  0.18750000  0.12500000  1
  V  V2355  1  0.56250000  0.18750000  0.18750000  1
  V  V2356  1  0.56250000  0.18750000  0.25000000  1
  V  V2357  1  0.56250000  0.18750000  0.31250000  1
  V  V2358  1  0.56250000  0.18750000  0.37500000  1
  V  V2359  1  0.56250000  0.18750000  0.43750000  1
  V  V2360  1  0.56250000  0.18750000  0.50000000  1
  V  V2361  1  0.56250000  0.18750000  0.56250000  1
  V  V2362  1  0.56250000  0.18750000  0.62500000  1
  V  V2363  1  0.56250000  0.18750000  0.68750000  1
  V  V2364  1  0.56250000  0.18750000  0.75000000  1
  V  V2365  1  0.56250000  0.18750000  0.81250000  1
  V  V2366  1  0.56250000  0.18750000  0.87500000  1
  V  V2367  1  0.56250000  0.18750000  0.93750000  1
  V  V2368  1  0.56250000  0.25000000  0.00000000  1
  V  V2369  1  0.56250000  0.25000000  0.06250000  1
  V  V2370  1  0.56250000  0.25000000  0.12500000  1
  V  V2371  1  0.56250000  0.25000000  0.18750000  1
  V  V2372  1  0.56250000  0.25000000  0.25000000  1
  V  V2373  1  0.56250000  0.25000000  0.31250000  1
  V  V2374  1  0.56250000  0.25000000  0.37500000  1
  V  V2375  1  0.56250000  0.25000000  0.43750000  1
  V  V2376  1  0.56250000  0.25000000  0.50000000  1
  V  V2377  1  0.56250000  0.25000000  0.56250000  1
  V  V2378  1  0.56250000  0.25000000  0.62500000  1
  V  V2379  1  0.56250000  0.25000000  0.68750000  1
  V  V2380  1  0.56250000  0.25000000  0.75000000  1
  V  V2381  1  0.56250000  0.25000000  0.81250000  1
  V  V2382  1  0.56250000  0.25000000  0.87500000  1
  V  V2383  1  0.56250000  0.25000000  0.93750000  1
  V  V2384  1  0.56250000  0.31250000  0.00000000  1
  Cr  Cr2385  1  0.56250000  0.31250000  0.06250000  1
  V  V2386  1  0.56250000  0.31250000  0.12500000  1
  V  V2387  1  0.56250000  0.31250000  0.18750000  1
  V  V2388  1  0.56250000  0.31250000  0.25000000  1
  V  V2389  1  0.56250000  0.31250000  0.31250000  1
  V  V2390  1  0.56250000  0.31250000  0.37500000  1
  V  V2391  1  0.56250000  0.31250000  0.43750000  1
  Ti  Ti2392  1  0.56250000  0.31250000  0.50000000  1
  Ti  Ti2393  1  0.56250000  0.31250000  0.56250000  1
  V  V2394  1  0.56250000  0.31250000  0.62500000  1
  Ti  Ti2395  1  0.56250000  0.31250000  0.68750000  1
  V  V2396  1  0.56250000  0.31250000  0.75000000  1
  V  V2397  1  0.56250000  0.31250000  0.81250000  1
  V  V2398  1  0.56250000  0.31250000  0.87500000  1
  V  V2399  1  0.56250000  0.31250000  0.93750000  1
  W  W2400  1  0.56250000  0.37500000  0.00000000  1
  W  W2401  1  0.56250000  0.37500000  0.06250000  1
  V  V2402  1  0.56250000  0.37500000  0.12500000  1
  V  V2403  1  0.56250000  0.37500000  0.18750000  1
  W  W2404  1  0.56250000  0.37500000  0.25000000  1
  V  V2405  1  0.56250000  0.37500000  0.31250000  1
  Ti  Ti2406  1  0.56250000  0.37500000  0.37500000  1
  Zr  Zr2407  1  0.56250000  0.37500000  0.43750000  1
  Zr  Zr2408  1  0.56250000  0.37500000  0.50000000  1
  Zr  Zr2409  1  0.56250000  0.37500000  0.56250000  1
  Zr  Zr2410  1  0.56250000  0.37500000  0.62500000  1
  Zr  Zr2411  1  0.56250000  0.37500000  0.68750000  1
  V  V2412  1  0.56250000  0.37500000  0.75000000  1
  V  V2413  1  0.56250000  0.37500000  0.81250000  1
  V  V2414  1  0.56250000  0.37500000  0.87500000  1
  V  V2415  1  0.56250000  0.37500000  0.93750000  1
  V  V2416  1  0.56250000  0.43750000  0.00000000  1
  V  V2417  1  0.56250000  0.43750000  0.06250000  1
  V  V2418  1  0.56250000  0.43750000  0.12500000  1
  V  V2419  1  0.56250000  0.43750000  0.18750000  1
  V  V2420  1  0.56250000  0.43750000  0.25000000  1
  W  W2421  1  0.56250000  0.43750000  0.31250000  1
  Ti  Ti2422  1  0.56250000  0.43750000  0.37500000  1
  Zr  Zr2423  1  0.56250000  0.43750000  0.43750000  1
  Zr  Zr2424  1  0.56250000  0.43750000  0.50000000  1
  Zr  Zr2425  1  0.56250000  0.43750000  0.56250000  1
  Zr  Zr2426  1  0.56250000  0.43750000  0.62500000  1
  Zr  Zr2427  1  0.56250000  0.43750000  0.68750000  1
  Ti  Ti2428  1  0.56250000  0.43750000  0.75000000  1
  V  V2429  1  0.56250000  0.43750000  0.81250000  1
  V  V2430  1  0.56250000  0.43750000  0.87500000  1
  V  V2431  1  0.56250000  0.43750000  0.93750000  1
  V  V2432  1  0.56250000  0.50000000  0.00000000  1
  V  V2433  1  0.56250000  0.50000000  0.06250000  1
  V  V2434  1  0.56250000  0.50000000  0.12500000  1
  V  V2435  1  0.56250000  0.50000000  0.18750000  1
  W  W2436  1  0.56250000  0.50000000  0.25000000  1
  V  V2437  1  0.56250000  0.50000000  0.31250000  1
  V  V2438  1  0.56250000  0.50000000  0.37500000  1
  Zr  Zr2439  1  0.56250000  0.50000000  0.43750000  1
  Zr  Zr2440  1  0.56250000  0.50000000  0.50000000  1
  Zr  Zr2441  1  0.56250000  0.50000000  0.56250000  1
  Zr  Zr2442  1  0.56250000  0.50000000  0.62500000  1
  Zr  Zr2443  1  0.56250000  0.50000000  0.68750000  1
  Zr  Zr2444  1  0.56250000  0.50000000  0.75000000  1
  Ti  Ti2445  1  0.56250000  0.50000000  0.81250000  1
  V  V2446  1  0.56250000  0.50000000  0.87500000  1
  V  V2447  1  0.56250000  0.50000000  0.93750000  1
  V  V2448  1  0.56250000  0.56250000  0.00000000  1
  V  V2449  1  0.56250000  0.56250000  0.06250000  1
  V  V2450  1  0.56250000  0.56250000  0.12500000  1
  V  V2451  1  0.56250000  0.56250000  0.18750000  1
  V  V2452  1  0.56250000  0.56250000  0.25000000  1
  V  V2453  1  0.56250000  0.56250000  0.31250000  1
  V  V2454  1  0.56250000  0.56250000  0.37500000  1
  Ti  Ti2455  1  0.56250000  0.56250000  0.43750000  1
  Zr  Zr2456  1  0.56250000  0.56250000  0.50000000  1
  Zr  Zr2457  1  0.56250000  0.56250000  0.56250000  1
  Zr  Zr2458  1  0.56250000  0.56250000  0.62500000  1
  Zr  Zr2459  1  0.56250000  0.56250000  0.68750000  1
  Zr  Zr2460  1  0.56250000  0.56250000  0.75000000  1
  Ti  Ti2461  1  0.56250000  0.56250000  0.81250000  1
  V  V2462  1  0.56250000  0.56250000  0.87500000  1
  V  V2463  1  0.56250000  0.56250000  0.93750000  1
  V  V2464  1  0.56250000  0.62500000  0.00000000  1
  V  V2465  1  0.56250000  0.62500000  0.06250000  1
  V  V2466  1  0.56250000  0.62500000  0.12500000  1
  V  V2467  1  0.56250000  0.62500000  0.18750000  1
  V  V2468  1  0.56250000  0.62500000  0.25000000  1
  V  V2469  1  0.56250000  0.62500000  0.31250000  1
  V  V2470  1  0.56250000  0.62500000  0.37500000  1
  V  V2471  1  0.56250000  0.62500000  0.43750000  1
  Ti  Ti2472  1  0.56250000  0.62500000  0.50000000  1
  Zr  Zr2473  1  0.56250000  0.62500000  0.56250000  1
  Zr  Zr2474  1  0.56250000  0.62500000  0.62500000  1
  Zr  Zr2475  1  0.56250000  0.62500000  0.68750000  1
  Zr  Zr2476  1  0.56250000  0.62500000  0.75000000  1
  Ti  Ti2477  1  0.56250000  0.62500000  0.81250000  1
  V  V2478  1  0.56250000  0.62500000  0.87500000  1
  V  V2479  1  0.56250000  0.62500000  0.93750000  1
  V  V2480  1  0.56250000  0.68750000  0.00000000  1
  V  V2481  1  0.56250000  0.68750000  0.06250000  1
  V  V2482  1  0.56250000  0.68750000  0.12500000  1
  V  V2483  1  0.56250000  0.68750000  0.18750000  1
  V  V2484  1  0.56250000  0.68750000  0.25000000  1
  V  V2485  1  0.56250000  0.68750000  0.31250000  1
  V  V2486  1  0.56250000  0.68750000  0.37500000  1
  V  V2487  1  0.56250000  0.68750000  0.43750000  1
  V  V2488  1  0.56250000  0.68750000  0.50000000  1
  Ti  Ti2489  1  0.56250000  0.68750000  0.56250000  1
  Zr  Zr2490  1  0.56250000  0.68750000  0.62500000  1
  Zr  Zr2491  1  0.56250000  0.68750000  0.68750000  1
  Ti  Ti2492  1  0.56250000  0.68750000  0.75000000  1
  V  V2493  1  0.56250000  0.68750000  0.81250000  1
  V  V2494  1  0.56250000  0.68750000  0.87500000  1
  V  V2495  1  0.56250000  0.68750000  0.93750000  1
  V  V2496  1  0.56250000  0.75000000  0.00000000  1
  V  V2497  1  0.56250000  0.75000000  0.06250000  1
  V  V2498  1  0.56250000  0.75000000  0.12500000  1
  V  V2499  1  0.56250000  0.75000000  0.18750000  1
  V  V2500  1  0.56250000  0.75000000  0.25000000  1
  V  V2501  1  0.56250000  0.75000000  0.31250000  1
  V  V2502  1  0.56250000  0.75000000  0.37500000  1
  V  V2503  1  0.56250000  0.75000000  0.43750000  1
  V  V2504  1  0.56250000  0.75000000  0.50000000  1
  V  V2505  1  0.56250000  0.75000000  0.56250000  1
  V  V2506  1  0.56250000  0.75000000  0.62500000  1
  Ti  Ti2507  1  0.56250000  0.75000000  0.68750000  1
  V  V2508  1  0.56250000  0.75000000  0.75000000  1
  V  V2509  1  0.56250000  0.75000000  0.81250000  1
  V  V2510  1  0.56250000  0.75000000  0.87500000  1
  V  V2511  1  0.56250000  0.75000000  0.93750000  1
  V  V2512  1  0.56250000  0.81250000  0.00000000  1
  V  V2513  1  0.56250000  0.81250000  0.06250000  1
  V  V2514  1  0.56250000  0.81250000  0.12500000  1
  V  V2515  1  0.56250000  0.81250000  0.18750000  1
  Cr  Cr2516  1  0.56250000  0.81250000  0.25000000  1
  V  V2517  1  0.56250000  0.81250000  0.31250000  1
  V  V2518  1  0.56250000  0.81250000  0.37500000  1
  V  V2519  1  0.56250000  0.81250000  0.43750000  1
  V  V2520  1  0.56250000  0.81250000  0.50000000  1
  V  V2521  1  0.56250000  0.81250000  0.56250000  1
  V  V2522  1  0.56250000  0.81250000  0.62500000  1
  V  V2523  1  0.56250000  0.81250000  0.68750000  1
  V  V2524  1  0.56250000  0.81250000  0.75000000  1
  V  V2525  1  0.56250000  0.81250000  0.81250000  1
  W  W2526  1  0.56250000  0.81250000  0.87500000  1
  V  V2527  1  0.56250000  0.81250000  0.93750000  1
  V  V2528  1  0.56250000  0.87500000  0.00000000  1
  V  V2529  1  0.56250000  0.87500000  0.06250000  1
  V  V2530  1  0.56250000  0.87500000  0.12500000  1
  V  V2531  1  0.56250000  0.87500000  0.18750000  1
  V  V2532  1  0.56250000  0.87500000  0.25000000  1
  V  V2533  1  0.56250000  0.87500000  0.31250000  1
  V  V2534  1  0.56250000  0.87500000  0.37500000  1
  W  W2535  1  0.56250000  0.87500000  0.43750000  1
  V  V2536  1  0.56250000  0.87500000  0.50000000  1
  V  V2537  1  0.56250000  0.87500000  0.56250000  1
  V  V2538  1  0.56250000  0.87500000  0.62500000  1
  V  V2539  1  0.56250000  0.87500000  0.68750000  1
  V  V2540  1  0.56250000  0.87500000  0.75000000  1
  V  V2541  1  0.56250000  0.87500000  0.81250000  1
  V  V2542  1  0.56250000  0.87500000  0.87500000  1
  V  V2543  1  0.56250000  0.87500000  0.93750000  1
  W  W2544  1  0.56250000  0.93750000  0.00000000  1
  V  V2545  1  0.56250000  0.93750000  0.06250000  1
  V  V2546  1  0.56250000  0.93750000  0.12500000  1
  V  V2547  1  0.56250000  0.93750000  0.18750000  1
  V  V2548  1  0.56250000  0.93750000  0.25000000  1
  V  V2549  1  0.56250000  0.93750000  0.31250000  1
  V  V2550  1  0.56250000  0.93750000  0.37500000  1
  V  V2551  1  0.56250000  0.93750000  0.43750000  1
  V  V2552  1  0.56250000  0.93750000  0.50000000  1
  V  V2553  1  0.56250000  0.93750000  0.56250000  1
  V  V2554  1  0.56250000  0.93750000  0.62500000  1
  V  V2555  1  0.56250000  0.93750000  0.68750000  1
  V  V2556  1  0.56250000  0.93750000  0.75000000  1
  V  V2557  1  0.56250000  0.93750000  0.81250000  1
  V  V2558  1  0.56250000  0.93750000  0.87500000  1
  V  V2559  1  0.56250000  0.93750000  0.93750000  1
  V  V2560  1  0.62500000  0.00000000  0.00000000  1
  V  V2561  1  0.62500000  0.00000000  0.06250000  1
  V  V2562  1  0.62500000  0.00000000  0.12500000  1
  V  V2563  1  0.62500000  0.00000000  0.18750000  1
  V  V2564  1  0.62500000  0.00000000  0.25000000  1
  W  W2565  1  0.62500000  0.00000000  0.31250000  1
  V  V2566  1  0.62500000  0.00000000  0.37500000  1
  V  V2567  1  0.62500000  0.00000000  0.43750000  1
  V  V2568  1  0.62500000  0.00000000  0.50000000  1
  V  V2569  1  0.62500000  0.00000000  0.56250000  1
  V  V2570  1  0.62500000  0.00000000  0.62500000  1
  V  V2571  1  0.62500000  0.00000000  0.68750000  1
  V  V2572  1  0.62500000  0.00000000  0.75000000  1
  V  V2573  1  0.62500000  0.00000000  0.81250000  1
  V  V2574  1  0.62500000  0.00000000  0.87500000  1
  W  W2575  1  0.62500000  0.00000000  0.93750000  1
  V  V2576  1  0.62500000  0.06250000  0.00000000  1
  V  V2577  1  0.62500000  0.06250000  0.06250000  1
  V  V2578  1  0.62500000  0.06250000  0.12500000  1
  V  V2579  1  0.62500000  0.06250000  0.18750000  1
  V  V2580  1  0.62500000  0.06250000  0.25000000  1
  V  V2581  1  0.62500000  0.06250000  0.31250000  1
  V  V2582  1  0.62500000  0.06250000  0.37500000  1
  V  V2583  1  0.62500000  0.06250000  0.43750000  1
  V  V2584  1  0.62500000  0.06250000  0.50000000  1
  V  V2585  1  0.62500000  0.06250000  0.56250000  1
  V  V2586  1  0.62500000  0.06250000  0.62500000  1
  V  V2587  1  0.62500000  0.06250000  0.68750000  1
  V  V2588  1  0.62500000  0.06250000  0.75000000  1
  V  V2589  1  0.62500000  0.06250000  0.81250000  1
  V  V2590  1  0.62500000  0.06250000  0.87500000  1
  V  V2591  1  0.62500000  0.06250000  0.93750000  1
  V  V2592  1  0.62500000  0.12500000  0.00000000  1
  V  V2593  1  0.62500000  0.12500000  0.06250000  1
  V  V2594  1  0.62500000  0.12500000  0.12500000  1
  V  V2595  1  0.62500000  0.12500000  0.18750000  1
  V  V2596  1  0.62500000  0.12500000  0.25000000  1
  V  V2597  1  0.62500000  0.12500000  0.31250000  1
  V  V2598  1  0.62500000  0.12500000  0.37500000  1
  V  V2599  1  0.62500000  0.12500000  0.43750000  1
  V  V2600  1  0.62500000  0.12500000  0.50000000  1
  W  W2601  1  0.62500000  0.12500000  0.56250000  1
  V  V2602  1  0.62500000  0.12500000  0.62500000  1
  V  V2603  1  0.62500000  0.12500000  0.68750000  1
  V  V2604  1  0.62500000  0.12500000  0.75000000  1
  V  V2605  1  0.62500000  0.12500000  0.81250000  1
  V  V2606  1  0.62500000  0.12500000  0.87500000  1
  V  V2607  1  0.62500000  0.12500000  0.93750000  1
  V  V2608  1  0.62500000  0.18750000  0.00000000  1
  V  V2609  1  0.62500000  0.18750000  0.06250000  1
  V  V2610  1  0.62500000  0.18750000  0.12500000  1
  V  V2611  1  0.62500000  0.18750000  0.18750000  1
  V  V2612  1  0.62500000  0.18750000  0.25000000  1
  V  V2613  1  0.62500000  0.18750000  0.31250000  1
  W  W2614  1  0.62500000  0.18750000  0.37500000  1
  V  V2615  1  0.62500000  0.18750000  0.43750000  1
  V  V2616  1  0.62500000  0.18750000  0.50000000  1
  V  V2617  1  0.62500000  0.18750000  0.56250000  1
  W  W2618  1  0.62500000  0.18750000  0.62500000  1
  V  V2619  1  0.62500000  0.18750000  0.68750000  1
  V  V2620  1  0.62500000  0.18750000  0.75000000  1
  W  W2621  1  0.62500000  0.18750000  0.81250000  1
  V  V2622  1  0.62500000  0.18750000  0.87500000  1
  V  V2623  1  0.62500000  0.18750000  0.93750000  1
  V  V2624  1  0.62500000  0.25000000  0.00000000  1
  V  V2625  1  0.62500000  0.25000000  0.06250000  1
  V  V2626  1  0.62500000  0.25000000  0.12500000  1
  V  V2627  1  0.62500000  0.25000000  0.18750000  1
  V  V2628  1  0.62500000  0.25000000  0.25000000  1
  V  V2629  1  0.62500000  0.25000000  0.31250000  1
  V  V2630  1  0.62500000  0.25000000  0.37500000  1
  V  V2631  1  0.62500000  0.25000000  0.43750000  1
  W  W2632  1  0.62500000  0.25000000  0.50000000  1
  V  V2633  1  0.62500000  0.25000000  0.56250000  1
  V  V2634  1  0.62500000  0.25000000  0.62500000  1
  V  V2635  1  0.62500000  0.25000000  0.68750000  1
  V  V2636  1  0.62500000  0.25000000  0.75000000  1
  V  V2637  1  0.62500000  0.25000000  0.81250000  1
  V  V2638  1  0.62500000  0.25000000  0.87500000  1
  V  V2639  1  0.62500000  0.25000000  0.93750000  1
  V  V2640  1  0.62500000  0.31250000  0.00000000  1
  V  V2641  1  0.62500000  0.31250000  0.06250000  1
  V  V2642  1  0.62500000  0.31250000  0.12500000  1
  V  V2643  1  0.62500000  0.31250000  0.18750000  1
  W  W2644  1  0.62500000  0.31250000  0.25000000  1
  W  W2645  1  0.62500000  0.31250000  0.31250000  1
  V  V2646  1  0.62500000  0.31250000  0.37500000  1
  V  V2647  1  0.62500000  0.31250000  0.43750000  1
  V  V2648  1  0.62500000  0.31250000  0.50000000  1
  V  V2649  1  0.62500000  0.31250000  0.56250000  1
  V  V2650  1  0.62500000  0.31250000  0.62500000  1
  W  W2651  1  0.62500000  0.31250000  0.68750000  1
  V  V2652  1  0.62500000  0.31250000  0.75000000  1
  V  V2653  1  0.62500000  0.31250000  0.81250000  1
  V  V2654  1  0.62500000  0.31250000  0.87500000  1
  V  V2655  1  0.62500000  0.31250000  0.93750000  1
  V  V2656  1  0.62500000  0.37500000  0.00000000  1
  V  V2657  1  0.62500000  0.37500000  0.06250000  1
  V  V2658  1  0.62500000  0.37500000  0.12500000  1
  V  V2659  1  0.62500000  0.37500000  0.18750000  1
  V  V2660  1  0.62500000  0.37500000  0.25000000  1
  V  V2661  1  0.62500000  0.37500000  0.31250000  1
  V  V2662  1  0.62500000  0.37500000  0.37500000  1
  V  V2663  1  0.62500000  0.37500000  0.43750000  1
  W  W2664  1  0.62500000  0.37500000  0.50000000  1
  Ti  Ti2665  1  0.62500000  0.37500000  0.56250000  1
  Ti  Ti2666  1  0.62500000  0.37500000  0.62500000  1
  V  V2667  1  0.62500000  0.37500000  0.68750000  1
  V  V2668  1  0.62500000  0.37500000  0.75000000  1
  V  V2669  1  0.62500000  0.37500000  0.81250000  1
  V  V2670  1  0.62500000  0.37500000  0.87500000  1
  V  V2671  1  0.62500000  0.37500000  0.93750000  1
  V  V2672  1  0.62500000  0.43750000  0.00000000  1
  V  V2673  1  0.62500000  0.43750000  0.06250000  1
  V  V2674  1  0.62500000  0.43750000  0.12500000  1
  V  V2675  1  0.62500000  0.43750000  0.18750000  1
  V  V2676  1  0.62500000  0.43750000  0.25000000  1
  V  V2677  1  0.62500000  0.43750000  0.31250000  1
  V  V2678  1  0.62500000  0.43750000  0.37500000  1
  Ti  Ti2679  1  0.62500000  0.43750000  0.43750000  1
  Zr  Zr2680  1  0.62500000  0.43750000  0.50000000  1
  Zr  Zr2681  1  0.62500000  0.43750000  0.56250000  1
  Zr  Zr2682  1  0.62500000  0.43750000  0.62500000  1
  Zr  Zr2683  1  0.62500000  0.43750000  0.68750000  1
  Ti  Ti2684  1  0.62500000  0.43750000  0.75000000  1
  V  V2685  1  0.62500000  0.43750000  0.81250000  1
  V  V2686  1  0.62500000  0.43750000  0.87500000  1
  V  V2687  1  0.62500000  0.43750000  0.93750000  1
  V  V2688  1  0.62500000  0.50000000  0.00000000  1
  W  W2689  1  0.62500000  0.50000000  0.06250000  1
  V  V2690  1  0.62500000  0.50000000  0.12500000  1
  W  W2691  1  0.62500000  0.50000000  0.18750000  1
  V  V2692  1  0.62500000  0.50000000  0.25000000  1
  V  V2693  1  0.62500000  0.50000000  0.31250000  1
  V  V2694  1  0.62500000  0.50000000  0.37500000  1
  Zr  Zr2695  1  0.62500000  0.50000000  0.43750000  1
  Zr  Zr2696  1  0.62500000  0.50000000  0.50000000  1
  Zr  Zr2697  1  0.62500000  0.50000000  0.56250000  1
  Zr  Zr2698  1  0.62500000  0.50000000  0.62500000  1
  Zr  Zr2699  1  0.62500000  0.50000000  0.68750000  1
  Ti  Ti2700  1  0.62500000  0.50000000  0.75000000  1
  Ti  Ti2701  1  0.62500000  0.50000000  0.81250000  1
  V  V2702  1  0.62500000  0.50000000  0.87500000  1
  V  V2703  1  0.62500000  0.50000000  0.93750000  1
  V  V2704  1  0.62500000  0.56250000  0.00000000  1
  V  V2705  1  0.62500000  0.56250000  0.06250000  1
  V  V2706  1  0.62500000  0.56250000  0.12500000  1
  V  V2707  1  0.62500000  0.56250000  0.18750000  1
  V  V2708  1  0.62500000  0.56250000  0.25000000  1
  V  V2709  1  0.62500000  0.56250000  0.31250000  1
  V  V2710  1  0.62500000  0.56250000  0.37500000  1
  V  V2711  1  0.62500000  0.56250000  0.43750000  1
  Zr  Zr2712  1  0.62500000  0.56250000  0.50000000  1
  Zr  Zr2713  1  0.62500000  0.56250000  0.56250000  1
  Zr  Zr2714  1  0.62500000  0.56250000  0.62500000  1
  Zr  Zr2715  1  0.62500000  0.56250000  0.68750000  1
  Zr  Zr2716  1  0.62500000  0.56250000  0.75000000  1
  Ti  Ti2717  1  0.62500000  0.56250000  0.81250000  1
  V  V2718  1  0.62500000  0.56250000  0.87500000  1
  Cr  Cr2719  1  0.62500000  0.56250000  0.93750000  1
  V  V2720  1  0.62500000  0.62500000  0.00000000  1
  V  V2721  1  0.62500000  0.62500000  0.06250000  1
  V  V2722  1  0.62500000  0.62500000  0.12500000  1
  V  V2723  1  0.62500000  0.62500000  0.18750000  1
  V  V2724  1  0.62500000  0.62500000  0.25000000  1
  V  V2725  1  0.62500000  0.62500000  0.31250000  1
  V  V2726  1  0.62500000  0.62500000  0.37500000  1
  V  V2727  1  0.62500000  0.62500000  0.43750000  1
  Ti  Ti2728  1  0.62500000  0.62500000  0.50000000  1
  Zr  Zr2729  1  0.62500000  0.62500000  0.56250000  1
  Zr  Zr2730  1  0.62500000  0.62500000  0.62500000  1
  Zr  Zr2731  1  0.62500000  0.62500000  0.68750000  1
  Zr  Zr2732  1  0.62500000  0.62500000  0.75000000  1
  Ti  Ti2733  1  0.62500000  0.62500000  0.81250000  1
  V  V2734  1  0.62500000  0.62500000  0.87500000  1
  V  V2735  1  0.62500000  0.62500000  0.93750000  1
  V  V2736  1  0.62500000  0.68750000  0.00000000  1
  V  V2737  1  0.62500000  0.68750000  0.06250000  1
  V  V2738  1  0.62500000  0.68750000  0.12500000  1
  V  V2739  1  0.62500000  0.68750000  0.18750000  1
  V  V2740  1  0.62500000  0.68750000  0.25000000  1
  V  V2741  1  0.62500000  0.68750000  0.31250000  1
  V  V2742  1  0.62500000  0.68750000  0.37500000  1
  V  V2743  1  0.62500000  0.68750000  0.43750000  1
  V  V2744  1  0.62500000  0.68750000  0.50000000  1
  Ti  Ti2745  1  0.62500000  0.68750000  0.56250000  1
  Ti  Ti2746  1  0.62500000  0.68750000  0.62500000  1
  Zr  Zr2747  1  0.62500000  0.68750000  0.68750000  1
  Zr  Zr2748  1  0.62500000  0.68750000  0.75000000  1
  Ti  Ti2749  1  0.62500000  0.68750000  0.81250000  1
  V  V2750  1  0.62500000  0.68750000  0.87500000  1
  V  V2751  1  0.62500000  0.68750000  0.93750000  1
  V  V2752  1  0.62500000  0.75000000  0.00000000  1
  V  V2753  1  0.62500000  0.75000000  0.06250000  1
  Cr  Cr2754  1  0.62500000  0.75000000  0.12500000  1
  V  V2755  1  0.62500000  0.75000000  0.18750000  1
  V  V2756  1  0.62500000  0.75000000  0.25000000  1
  W  W2757  1  0.62500000  0.75000000  0.31250000  1
  V  V2758  1  0.62500000  0.75000000  0.37500000  1
  V  V2759  1  0.62500000  0.75000000  0.43750000  1
  V  V2760  1  0.62500000  0.75000000  0.50000000  1
  Ti  Ti2761  1  0.62500000  0.75000000  0.56250000  1
  Ti  Ti2762  1  0.62500000  0.75000000  0.62500000  1
  V  V2763  1  0.62500000  0.75000000  0.68750000  1
  V  V2764  1  0.62500000  0.75000000  0.75000000  1
  V  V2765  1  0.62500000  0.75000000  0.81250000  1
  V  V2766  1  0.62500000  0.75000000  0.87500000  1
  V  V2767  1  0.62500000  0.75000000  0.93750000  1
  W  W2768  1  0.62500000  0.81250000  0.00000000  1
  V  V2769  1  0.62500000  0.81250000  0.06250000  1
  V  V2770  1  0.62500000  0.81250000  0.12500000  1
  V  V2771  1  0.62500000  0.81250000  0.18750000  1
  V  V2772  1  0.62500000  0.81250000  0.25000000  1
  V  V2773  1  0.62500000  0.81250000  0.31250000  1
  V  V2774  1  0.62500000  0.81250000  0.37500000  1
  V  V2775  1  0.62500000  0.81250000  0.43750000  1
  V  V2776  1  0.62500000  0.81250000  0.50000000  1
  V  V2777  1  0.62500000  0.81250000  0.56250000  1
  V  V2778  1  0.62500000  0.81250000  0.62500000  1
  V  V2779  1  0.62500000  0.81250000  0.68750000  1
  V  V2780  1  0.62500000  0.81250000  0.75000000  1
  V  V2781  1  0.62500000  0.81250000  0.81250000  1
  V  V2782  1  0.62500000  0.81250000  0.87500000  1
  V  V2783  1  0.62500000  0.81250000  0.93750000  1
  V  V2784  1  0.62500000  0.87500000  0.00000000  1
  V  V2785  1  0.62500000  0.87500000  0.06250000  1
  V  V2786  1  0.62500000  0.87500000  0.12500000  1
  V  V2787  1  0.62500000  0.87500000  0.18750000  1
  V  V2788  1  0.62500000  0.87500000  0.25000000  1
  V  V2789  1  0.62500000  0.87500000  0.31250000  1
  V  V2790  1  0.62500000  0.87500000  0.37500000  1
  V  V2791  1  0.62500000  0.87500000  0.43750000  1
  V  V2792  1  0.62500000  0.87500000  0.50000000  1
  V  V2793  1  0.62500000  0.87500000  0.56250000  1
  V  V2794  1  0.62500000  0.87500000  0.62500000  1
  V  V2795  1  0.62500000  0.87500000  0.68750000  1
  V  V2796  1  0.62500000  0.87500000  0.75000000  1
  V  V2797  1  0.62500000  0.87500000  0.81250000  1
  V  V2798  1  0.62500000  0.87500000  0.87500000  1
  V  V2799  1  0.62500000  0.87500000  0.93750000  1
  V  V2800  1  0.62500000  0.93750000  0.00000000  1
  V  V2801  1  0.62500000  0.93750000  0.06250000  1
  V  V2802  1  0.62500000  0.93750000  0.12500000  1
  V  V2803  1  0.62500000  0.93750000  0.18750000  1
  V  V2804  1  0.62500000  0.93750000  0.25000000  1
  V  V2805  1  0.62500000  0.93750000  0.31250000  1
  V  V2806  1  0.62500000  0.93750000  0.37500000  1
  V  V2807  1  0.62500000  0.93750000  0.43750000  1
  V  V2808  1  0.62500000  0.93750000  0.50000000  1
  V  V2809  1  0.62500000  0.93750000  0.56250000  1
  V  V2810  1  0.62500000  0.93750000  0.62500000  1
  V  V2811  1  0.62500000  0.93750000  0.68750000  1
  V  V2812  1  0.62500000  0.93750000  0.75000000  1
  V  V2813  1  0.62500000  0.93750000  0.81250000  1
  V  V2814  1  0.62500000  0.93750000  0.87500000  1
  V  V2815  1  0.62500000  0.93750000  0.93750000  1
  V  V2816  1  0.68750000  0.00000000  0.00000000  1
  V  V2817  1  0.68750000  0.00000000  0.06250000  1
  V  V2818  1  0.68750000  0.00000000  0.12500000  1
  V  V2819  1  0.68750000  0.00000000  0.18750000  1
  V  V2820  1  0.68750000  0.00000000  0.25000000  1
  V  V2821  1  0.68750000  0.00000000  0.31250000  1
  V  V2822  1  0.68750000  0.00000000  0.37500000  1
  V  V2823  1  0.68750000  0.00000000  0.43750000  1
  V  V2824  1  0.68750000  0.00000000  0.50000000  1
  V  V2825  1  0.68750000  0.00000000  0.56250000  1
  V  V2826  1  0.68750000  0.00000000  0.62500000  1
  V  V2827  1  0.68750000  0.00000000  0.68750000  1
  V  V2828  1  0.68750000  0.00000000  0.75000000  1
  Cr  Cr2829  1  0.68750000  0.00000000  0.81250000  1
  W  W2830  1  0.68750000  0.00000000  0.87500000  1
  V  V2831  1  0.68750000  0.00000000  0.93750000  1
  V  V2832  1  0.68750000  0.06250000  0.00000000  1
  V  V2833  1  0.68750000  0.06250000  0.06250000  1
  Cr  Cr2834  1  0.68750000  0.06250000  0.12500000  1
  W  W2835  1  0.68750000  0.06250000  0.18750000  1
  V  V2836  1  0.68750000  0.06250000  0.25000000  1
  V  V2837  1  0.68750000  0.06250000  0.31250000  1
  V  V2838  1  0.68750000  0.06250000  0.37500000  1
  V  V2839  1  0.68750000  0.06250000  0.43750000  1
  Cr  Cr2840  1  0.68750000  0.06250000  0.50000000  1
  V  V2841  1  0.68750000  0.06250000  0.56250000  1
  V  V2842  1  0.68750000  0.06250000  0.62500000  1
  V  V2843  1  0.68750000  0.06250000  0.68750000  1
  V  V2844  1  0.68750000  0.06250000  0.75000000  1
  V  V2845  1  0.68750000  0.06250000  0.81250000  1
  V  V2846  1  0.68750000  0.06250000  0.87500000  1
  V  V2847  1  0.68750000  0.06250000  0.93750000  1
  V  V2848  1  0.68750000  0.12500000  0.00000000  1
  W  W2849  1  0.68750000  0.12500000  0.06250000  1
  V  V2850  1  0.68750000  0.12500000  0.12500000  1
  V  V2851  1  0.68750000  0.12500000  0.18750000  1
  Cr  Cr2852  1  0.68750000  0.12500000  0.25000000  1
  V  V2853  1  0.68750000  0.12500000  0.31250000  1
  V  V2854  1  0.68750000  0.12500000  0.37500000  1
  V  V2855  1  0.68750000  0.12500000  0.43750000  1
  V  V2856  1  0.68750000  0.12500000  0.50000000  1
  V  V2857  1  0.68750000  0.12500000  0.56250000  1
  V  V2858  1  0.68750000  0.12500000  0.62500000  1
  V  V2859  1  0.68750000  0.12500000  0.68750000  1
  V  V2860  1  0.68750000  0.12500000  0.75000000  1
  V  V2861  1  0.68750000  0.12500000  0.81250000  1
  V  V2862  1  0.68750000  0.12500000  0.87500000  1
  V  V2863  1  0.68750000  0.12500000  0.93750000  1
  V  V2864  1  0.68750000  0.18750000  0.00000000  1
  V  V2865  1  0.68750000  0.18750000  0.06250000  1
  V  V2866  1  0.68750000  0.18750000  0.12500000  1
  W  W2867  1  0.68750000  0.18750000  0.18750000  1
  V  V2868  1  0.68750000  0.18750000  0.25000000  1
  V  V2869  1  0.68750000  0.18750000  0.31250000  1
  V  V2870  1  0.68750000  0.18750000  0.37500000  1
  V  V2871  1  0.68750000  0.18750000  0.43750000  1
  V  V2872  1  0.68750000  0.18750000  0.50000000  1
  W  W2873  1  0.68750000  0.18750000  0.56250000  1
  V  V2874  1  0.68750000  0.18750000  0.62500000  1
  V  V2875  1  0.68750000  0.18750000  0.68750000  1
  V  V2876  1  0.68750000  0.18750000  0.75000000  1
  V  V2877  1  0.68750000  0.18750000  0.81250000  1
  V  V2878  1  0.68750000  0.18750000  0.87500000  1
  V  V2879  1  0.68750000  0.18750000  0.93750000  1
  V  V2880  1  0.68750000  0.25000000  0.00000000  1
  V  V2881  1  0.68750000  0.25000000  0.06250000  1
  V  V2882  1  0.68750000  0.25000000  0.12500000  1
  V  V2883  1  0.68750000  0.25000000  0.18750000  1
  V  V2884  1  0.68750000  0.25000000  0.25000000  1
  V  V2885  1  0.68750000  0.25000000  0.31250000  1
  V  V2886  1  0.68750000  0.25000000  0.37500000  1
  V  V2887  1  0.68750000  0.25000000  0.43750000  1
  V  V2888  1  0.68750000  0.25000000  0.50000000  1
  W  W2889  1  0.68750000  0.25000000  0.56250000  1
  V  V2890  1  0.68750000  0.25000000  0.62500000  1
  V  V2891  1  0.68750000  0.25000000  0.68750000  1
  V  V2892  1  0.68750000  0.25000000  0.75000000  1
  V  V2893  1  0.68750000  0.25000000  0.81250000  1
  V  V2894  1  0.68750000  0.25000000  0.87500000  1
  V  V2895  1  0.68750000  0.25000000  0.93750000  1
  V  V2896  1  0.68750000  0.31250000  0.00000000  1
  V  V2897  1  0.68750000  0.31250000  0.06250000  1
  V  V2898  1  0.68750000  0.31250000  0.12500000  1
  V  V2899  1  0.68750000  0.31250000  0.18750000  1
  V  V2900  1  0.68750000  0.31250000  0.25000000  1
  V  V2901  1  0.68750000  0.31250000  0.31250000  1
  V  V2902  1  0.68750000  0.31250000  0.37500000  1
  V  V2903  1  0.68750000  0.31250000  0.43750000  1
  V  V2904  1  0.68750000  0.31250000  0.50000000  1
  V  V2905  1  0.68750000  0.31250000  0.56250000  1
  V  V2906  1  0.68750000  0.31250000  0.62500000  1
  V  V2907  1  0.68750000  0.31250000  0.68750000  1
  V  V2908  1  0.68750000  0.31250000  0.75000000  1
  V  V2909  1  0.68750000  0.31250000  0.81250000  1
  V  V2910  1  0.68750000  0.31250000  0.87500000  1
  V  V2911  1  0.68750000  0.31250000  0.93750000  1
  V  V2912  1  0.68750000  0.37500000  0.00000000  1
  V  V2913  1  0.68750000  0.37500000  0.06250000  1
  V  V2914  1  0.68750000  0.37500000  0.12500000  1
  V  V2915  1  0.68750000  0.37500000  0.18750000  1
  V  V2916  1  0.68750000  0.37500000  0.25000000  1
  V  V2917  1  0.68750000  0.37500000  0.31250000  1
  V  V2918  1  0.68750000  0.37500000  0.37500000  1
  V  V2919  1  0.68750000  0.37500000  0.43750000  1
  V  V2920  1  0.68750000  0.37500000  0.50000000  1
  V  V2921  1  0.68750000  0.37500000  0.56250000  1
  V  V2922  1  0.68750000  0.37500000  0.62500000  1
  V  V2923  1  0.68750000  0.37500000  0.68750000  1
  V  V2924  1  0.68750000  0.37500000  0.75000000  1
  V  V2925  1  0.68750000  0.37500000  0.81250000  1
  V  V2926  1  0.68750000  0.37500000  0.87500000  1
  V  V2927  1  0.68750000  0.37500000  0.93750000  1
  V  V2928  1  0.68750000  0.43750000  0.00000000  1
  V  V2929  1  0.68750000  0.43750000  0.06250000  1
  V  V2930  1  0.68750000  0.43750000  0.12500000  1
  Cr  Cr2931  1  0.68750000  0.43750000  0.18750000  1
  V  V2932  1  0.68750000  0.43750000  0.25000000  1
  V  V2933  1  0.68750000  0.43750000  0.31250000  1
  V  V2934  1  0.68750000  0.43750000  0.37500000  1
  V  V2935  1  0.68750000  0.43750000  0.43750000  1
  Ti  Ti2936  1  0.68750000  0.43750000  0.50000000  1
  V  V2937  1  0.68750000  0.43750000  0.56250000  1
  Ti  Ti2938  1  0.68750000  0.43750000  0.62500000  1
  Ti  Ti2939  1  0.68750000  0.43750000  0.68750000  1
  V  V2940  1  0.68750000  0.43750000  0.75000000  1
  V  V2941  1  0.68750000  0.43750000  0.81250000  1
  V  V2942  1  0.68750000  0.43750000  0.87500000  1
  V  V2943  1  0.68750000  0.43750000  0.93750000  1
  V  V2944  1  0.68750000  0.50000000  0.00000000  1
  V  V2945  1  0.68750000  0.50000000  0.06250000  1
  V  V2946  1  0.68750000  0.50000000  0.12500000  1
  W  W2947  1  0.68750000  0.50000000  0.18750000  1
  V  V2948  1  0.68750000  0.50000000  0.25000000  1
  V  V2949  1  0.68750000  0.50000000  0.31250000  1
  V  V2950  1  0.68750000  0.50000000  0.37500000  1
  V  V2951  1  0.68750000  0.50000000  0.43750000  1
  V  V2952  1  0.68750000  0.50000000  0.50000000  1
  Zr  Zr2953  1  0.68750000  0.50000000  0.56250000  1
  Zr  Zr2954  1  0.68750000  0.50000000  0.62500000  1
  Zr  Zr2955  1  0.68750000  0.50000000  0.68750000  1
  Ti  Ti2956  1  0.68750000  0.50000000  0.75000000  1
  V  V2957  1  0.68750000  0.50000000  0.81250000  1
  V  V2958  1  0.68750000  0.50000000  0.87500000  1
  V  V2959  1  0.68750000  0.50000000  0.93750000  1
  W  W2960  1  0.68750000  0.56250000  0.00000000  1
  V  V2961  1  0.68750000  0.56250000  0.06250000  1
  V  V2962  1  0.68750000  0.56250000  0.12500000  1
  V  V2963  1  0.68750000  0.56250000  0.18750000  1
  W  W2964  1  0.68750000  0.56250000  0.25000000  1
  V  V2965  1  0.68750000  0.56250000  0.31250000  1
  V  V2966  1  0.68750000  0.56250000  0.37500000  1
  V  V2967  1  0.68750000  0.56250000  0.43750000  1
  Zr  Zr2968  1  0.68750000  0.56250000  0.50000000  1
  Zr  Zr2969  1  0.68750000  0.56250000  0.56250000  1
  Zr  Zr2970  1  0.68750000  0.56250000  0.62500000  1
  Zr  Zr2971  1  0.68750000  0.56250000  0.68750000  1
  Zr  Zr2972  1  0.68750000  0.56250000  0.75000000  1
  V  V2973  1  0.68750000  0.56250000  0.81250000  1
  V  V2974  1  0.68750000  0.56250000  0.87500000  1
  V  V2975  1  0.68750000  0.56250000  0.93750000  1
  V  V2976  1  0.68750000  0.62500000  0.00000000  1
  V  V2977  1  0.68750000  0.62500000  0.06250000  1
  V  V2978  1  0.68750000  0.62500000  0.12500000  1
  V  V2979  1  0.68750000  0.62500000  0.18750000  1
  V  V2980  1  0.68750000  0.62500000  0.25000000  1
  V  V2981  1  0.68750000  0.62500000  0.31250000  1
  V  V2982  1  0.68750000  0.62500000  0.37500000  1
  V  V2983  1  0.68750000  0.62500000  0.43750000  1
  Ti  Ti2984  1  0.68750000  0.62500000  0.50000000  1
  Zr  Zr2985  1  0.68750000  0.62500000  0.56250000  1
  Zr  Zr2986  1  0.68750000  0.62500000  0.62500000  1
  Zr  Zr2987  1  0.68750000  0.62500000  0.68750000  1
  Zr  Zr2988  1  0.68750000  0.62500000  0.75000000  1
  Ti  Ti2989  1  0.68750000  0.62500000  0.81250000  1
  V  V2990  1  0.68750000  0.62500000  0.87500000  1
  V  V2991  1  0.68750000  0.62500000  0.93750000  1
  V  V2992  1  0.68750000  0.68750000  0.00000000  1
  V  V2993  1  0.68750000  0.68750000  0.06250000  1
  V  V2994  1  0.68750000  0.68750000  0.12500000  1
  V  V2995  1  0.68750000  0.68750000  0.18750000  1
  V  V2996  1  0.68750000  0.68750000  0.25000000  1
  V  V2997  1  0.68750000  0.68750000  0.31250000  1
  V  V2998  1  0.68750000  0.68750000  0.37500000  1
  V  V2999  1  0.68750000  0.68750000  0.43750000  1
  V  V3000  1  0.68750000  0.68750000  0.50000000  1
  Ti  Ti3001  1  0.68750000  0.68750000  0.56250000  1
  Ti  Ti3002  1  0.68750000  0.68750000  0.62500000  1
  Zr  Zr3003  1  0.68750000  0.68750000  0.68750000  1
  Zr  Zr3004  1  0.68750000  0.68750000  0.75000000  1
  Ti  Ti3005  1  0.68750000  0.68750000  0.81250000  1
  Ti  Ti3006  1  0.68750000  0.68750000  0.87500000  1
  V  V3007  1  0.68750000  0.68750000  0.93750000  1
  V  V3008  1  0.68750000  0.75000000  0.00000000  1
  V  V3009  1  0.68750000  0.75000000  0.06250000  1
  V  V3010  1  0.68750000  0.75000000  0.12500000  1
  V  V3011  1  0.68750000  0.75000000  0.18750000  1
  V  V3012  1  0.68750000  0.75000000  0.25000000  1
  V  V3013  1  0.68750000  0.75000000  0.31250000  1
  V  V3014  1  0.68750000  0.75000000  0.37500000  1
  V  V3015  1  0.68750000  0.75000000  0.43750000  1
  W  W3016  1  0.68750000  0.75000000  0.50000000  1
  V  V3017  1  0.68750000  0.75000000  0.56250000  1
  Ti  Ti3018  1  0.68750000  0.75000000  0.62500000  1
  Ti  Ti3019  1  0.68750000  0.75000000  0.68750000  1
  V  V3020  1  0.68750000  0.75000000  0.75000000  1
  Ti  Ti3021  1  0.68750000  0.75000000  0.81250000  1
  V  V3022  1  0.68750000  0.75000000  0.87500000  1
  V  V3023  1  0.68750000  0.75000000  0.93750000  1
  V  V3024  1  0.68750000  0.81250000  0.00000000  1
  V  V3025  1  0.68750000  0.81250000  0.06250000  1
  V  V3026  1  0.68750000  0.81250000  0.12500000  1
  V  V3027  1  0.68750000  0.81250000  0.18750000  1
  V  V3028  1  0.68750000  0.81250000  0.25000000  1
  V  V3029  1  0.68750000  0.81250000  0.31250000  1
  V  V3030  1  0.68750000  0.81250000  0.37500000  1
  V  V3031  1  0.68750000  0.81250000  0.43750000  1
  V  V3032  1  0.68750000  0.81250000  0.50000000  1
  V  V3033  1  0.68750000  0.81250000  0.56250000  1
  V  V3034  1  0.68750000  0.81250000  0.62500000  1
  V  V3035  1  0.68750000  0.81250000  0.68750000  1
  V  V3036  1  0.68750000  0.81250000  0.75000000  1
  V  V3037  1  0.68750000  0.81250000  0.81250000  1
  V  V3038  1  0.68750000  0.81250000  0.87500000  1
  W  W3039  1  0.68750000  0.81250000  0.93750000  1
  V  V3040  1  0.68750000  0.87500000  0.00000000  1
  V  V3041  1  0.68750000  0.87500000  0.06250000  1
  V  V3042  1  0.68750000  0.87500000  0.12500000  1
  V  V3043  1  0.68750000  0.87500000  0.18750000  1
  Cr  Cr3044  1  0.68750000  0.87500000  0.25000000  1
  V  V3045  1  0.68750000  0.87500000  0.31250000  1
  V  V3046  1  0.68750000  0.87500000  0.37500000  1
  V  V3047  1  0.68750000  0.87500000  0.43750000  1
  V  V3048  1  0.68750000  0.87500000  0.50000000  1
  V  V3049  1  0.68750000  0.87500000  0.56250000  1
  V  V3050  1  0.68750000  0.87500000  0.62500000  1
  V  V3051  1  0.68750000  0.87500000  0.68750000  1
  V  V3052  1  0.68750000  0.87500000  0.75000000  1
  V  V3053  1  0.68750000  0.87500000  0.81250000  1
  V  V3054  1  0.68750000  0.87500000  0.87500000  1
  V  V3055  1  0.68750000  0.87500000  0.93750000  1
  V  V3056  1  0.68750000  0.93750000  0.00000000  1
  V  V3057  1  0.68750000  0.93750000  0.06250000  1
  V  V3058  1  0.68750000  0.93750000  0.12500000  1
  V  V3059  1  0.68750000  0.93750000  0.18750000  1
  V  V3060  1  0.68750000  0.93750000  0.25000000  1
  V  V3061  1  0.68750000  0.93750000  0.31250000  1
  V  V3062  1  0.68750000  0.93750000  0.37500000  1
  V  V3063  1  0.68750000  0.93750000  0.43750000  1
  V  V3064  1  0.68750000  0.93750000  0.50000000  1
  W  W3065  1  0.68750000  0.93750000  0.56250000  1
  V  V3066  1  0.68750000  0.93750000  0.62500000  1
  V  V3067  1  0.68750000  0.93750000  0.68750000  1
  V  V3068  1  0.68750000  0.93750000  0.75000000  1
  V  V3069  1  0.68750000  0.93750000  0.81250000  1
  V  V3070  1  0.68750000  0.93750000  0.87500000  1
  V  V3071  1  0.68750000  0.93750000  0.93750000  1
  V  V3072  1  0.75000000  0.00000000  0.00000000  1
  V  V3073  1  0.75000000  0.00000000  0.06250000  1
  V  V3074  1  0.75000000  0.00000000  0.12500000  1
  V  V3075  1  0.75000000  0.00000000  0.18750000  1
  W  W3076  1  0.75000000  0.00000000  0.25000000  1
  V  V3077  1  0.75000000  0.00000000  0.31250000  1
  V  V3078  1  0.75000000  0.00000000  0.37500000  1
  V  V3079  1  0.75000000  0.00000000  0.43750000  1
  V  V3080  1  0.75000000  0.00000000  0.50000000  1
  V  V3081  1  0.75000000  0.00000000  0.56250000  1
  V  V3082  1  0.75000000  0.00000000  0.62500000  1
  V  V3083  1  0.75000000  0.00000000  0.68750000  1
  V  V3084  1  0.75000000  0.00000000  0.75000000  1
  V  V3085  1  0.75000000  0.00000000  0.81250000  1
  V  V3086  1  0.75000000  0.00000000  0.87500000  1
  V  V3087  1  0.75000000  0.00000000  0.93750000  1
  V  V3088  1  0.75000000  0.06250000  0.00000000  1
  V  V3089  1  0.75000000  0.06250000  0.06250000  1
  V  V3090  1  0.75000000  0.06250000  0.12500000  1
  V  V3091  1  0.75000000  0.06250000  0.18750000  1
  V  V3092  1  0.75000000  0.06250000  0.25000000  1
  V  V3093  1  0.75000000  0.06250000  0.31250000  1
  V  V3094  1  0.75000000  0.06250000  0.37500000  1
  V  V3095  1  0.75000000  0.06250000  0.43750000  1
  V  V3096  1  0.75000000  0.06250000  0.50000000  1
  V  V3097  1  0.75000000  0.06250000  0.56250000  1
  V  V3098  1  0.75000000  0.06250000  0.62500000  1
  V  V3099  1  0.75000000  0.06250000  0.68750000  1
  V  V3100  1  0.75000000  0.06250000  0.75000000  1
  V  V3101  1  0.75000000  0.06250000  0.81250000  1
  W  W3102  1  0.75000000  0.06250000  0.87500000  1
  V  V3103  1  0.75000000  0.06250000  0.93750000  1
  V  V3104  1  0.75000000  0.12500000  0.00000000  1
  V  V3105  1  0.75000000  0.12500000  0.06250000  1
  V  V3106  1  0.75000000  0.12500000  0.12500000  1
  V  V3107  1  0.75000000  0.12500000  0.18750000  1
  V  V3108  1  0.75000000  0.12500000  0.25000000  1
  V  V3109  1  0.75000000  0.12500000  0.31250000  1
  V  V3110  1  0.75000000  0.12500000  0.37500000  1
  V  V3111  1  0.75000000  0.12500000  0.43750000  1
  V  V3112  1  0.75000000  0.12500000  0.50000000  1
  V  V3113  1  0.75000000  0.12500000  0.56250000  1
  V  V3114  1  0.75000000  0.12500000  0.62500000  1
  W  W3115  1  0.75000000  0.12500000  0.68750000  1
  V  V3116  1  0.75000000  0.12500000  0.75000000  1
  V  V3117  1  0.75000000  0.12500000  0.81250000  1
  V  V3118  1  0.75000000  0.12500000  0.87500000  1
  V  V3119  1  0.75000000  0.12500000  0.93750000  1
  V  V3120  1  0.75000000  0.18750000  0.00000000  1
  V  V3121  1  0.75000000  0.18750000  0.06250000  1
  V  V3122  1  0.75000000  0.18750000  0.12500000  1
  Cr  Cr3123  1  0.75000000  0.18750000  0.18750000  1
  V  V3124  1  0.75000000  0.18750000  0.25000000  1
  V  V3125  1  0.75000000  0.18750000  0.31250000  1
  V  V3126  1  0.75000000  0.18750000  0.37500000  1
  W  W3127  1  0.75000000  0.18750000  0.43750000  1
  V  V3128  1  0.75000000  0.18750000  0.50000000  1
  V  V3129  1  0.75000000  0.18750000  0.56250000  1
  V  V3130  1  0.75000000  0.18750000  0.62500000  1
  V  V3131  1  0.75000000  0.18750000  0.68750000  1
  V  V3132  1  0.75000000  0.18750000  0.75000000  1
  V  V3133  1  0.75000000  0.18750000  0.81250000  1
  V  V3134  1  0.75000000  0.18750000  0.87500000  1
  V  V3135  1  0.75000000  0.18750000  0.93750000  1
  V  V3136  1  0.75000000  0.25000000  0.00000000  1
  V  V3137  1  0.75000000  0.25000000  0.06250000  1
  V  V3138  1  0.75000000  0.25000000  0.12500000  1
  V  V3139  1  0.75000000  0.25000000  0.18750000  1
  V  V3140  1  0.75000000  0.25000000  0.25000000  1
  V  V3141  1  0.75000000  0.25000000  0.31250000  1
  V  V3142  1  0.75000000  0.25000000  0.37500000  1
  V  V3143  1  0.75000000  0.25000000  0.43750000  1
  V  V3144  1  0.75000000  0.25000000  0.50000000  1
  V  V3145  1  0.75000000  0.25000000  0.56250000  1
  V  V3146  1  0.75000000  0.25000000  0.62500000  1
  V  V3147  1  0.75000000  0.25000000  0.68750000  1
  V  V3148  1  0.75000000  0.25000000  0.75000000  1
  V  V3149  1  0.75000000  0.25000000  0.81250000  1
  W  W3150  1  0.75000000  0.25000000  0.87500000  1
  V  V3151  1  0.75000000  0.25000000  0.93750000  1
  V  V3152  1  0.75000000  0.31250000  0.00000000  1
  V  V3153  1  0.75000000  0.31250000  0.06250000  1
  V  V3154  1  0.75000000  0.31250000  0.12500000  1
  V  V3155  1  0.75000000  0.31250000  0.18750000  1
  V  V3156  1  0.75000000  0.31250000  0.25000000  1
  V  V3157  1  0.75000000  0.31250000  0.31250000  1
  V  V3158  1  0.75000000  0.31250000  0.37500000  1
  V  V3159  1  0.75000000  0.31250000  0.43750000  1
  V  V3160  1  0.75000000  0.31250000  0.50000000  1
  V  V3161  1  0.75000000  0.31250000  0.56250000  1
  V  V3162  1  0.75000000  0.31250000  0.62500000  1
  V  V3163  1  0.75000000  0.31250000  0.68750000  1
  V  V3164  1  0.75000000  0.31250000  0.75000000  1
  V  V3165  1  0.75000000  0.31250000  0.81250000  1
  V  V3166  1  0.75000000  0.31250000  0.87500000  1
  V  V3167  1  0.75000000  0.31250000  0.93750000  1
  V  V3168  1  0.75000000  0.37500000  0.00000000  1
  V  V3169  1  0.75000000  0.37500000  0.06250000  1
  V  V3170  1  0.75000000  0.37500000  0.12500000  1
  V  V3171  1  0.75000000  0.37500000  0.18750000  1
  V  V3172  1  0.75000000  0.37500000  0.25000000  1
  V  V3173  1  0.75000000  0.37500000  0.31250000  1
  V  V3174  1  0.75000000  0.37500000  0.37500000  1
  V  V3175  1  0.75000000  0.37500000  0.43750000  1
  V  V3176  1  0.75000000  0.37500000  0.50000000  1
  V  V3177  1  0.75000000  0.37500000  0.56250000  1
  V  V3178  1  0.75000000  0.37500000  0.62500000  1
  V  V3179  1  0.75000000  0.37500000  0.68750000  1
  V  V3180  1  0.75000000  0.37500000  0.75000000  1
  V  V3181  1  0.75000000  0.37500000  0.81250000  1
  V  V3182  1  0.75000000  0.37500000  0.87500000  1
  Cr  Cr3183  1  0.75000000  0.37500000  0.93750000  1
  V  V3184  1  0.75000000  0.43750000  0.00000000  1
  V  V3185  1  0.75000000  0.43750000  0.06250000  1
  V  V3186  1  0.75000000  0.43750000  0.12500000  1
  V  V3187  1  0.75000000  0.43750000  0.18750000  1
  V  V3188  1  0.75000000  0.43750000  0.25000000  1
  W  W3189  1  0.75000000  0.43750000  0.31250000  1
  V  V3190  1  0.75000000  0.43750000  0.37500000  1
  V  V3191  1  0.75000000  0.43750000  0.43750000  1
  V  V3192  1  0.75000000  0.43750000  0.50000000  1
  V  V3193  1  0.75000000  0.43750000  0.56250000  1
  V  V3194  1  0.75000000  0.43750000  0.62500000  1
  V  V3195  1  0.75000000  0.43750000  0.68750000  1
  V  V3196  1  0.75000000  0.43750000  0.75000000  1
  V  V3197  1  0.75000000  0.43750000  0.81250000  1
  V  V3198  1  0.75000000  0.43750000  0.87500000  1
  W  W3199  1  0.75000000  0.43750000  0.93750000  1
  V  V3200  1  0.75000000  0.50000000  0.00000000  1
  V  V3201  1  0.75000000  0.50000000  0.06250000  1
  V  V3202  1  0.75000000  0.50000000  0.12500000  1
  V  V3203  1  0.75000000  0.50000000  0.18750000  1
  V  V3204  1  0.75000000  0.50000000  0.25000000  1
  V  V3205  1  0.75000000  0.50000000  0.31250000  1
  V  V3206  1  0.75000000  0.50000000  0.37500000  1
  V  V3207  1  0.75000000  0.50000000  0.43750000  1
  V  V3208  1  0.75000000  0.50000000  0.50000000  1
  V  V3209  1  0.75000000  0.50000000  0.56250000  1
  Ti  Ti3210  1  0.75000000  0.50000000  0.62500000  1
  V  V3211  1  0.75000000  0.50000000  0.68750000  1
  V  V3212  1  0.75000000  0.50000000  0.75000000  1
  V  V3213  1  0.75000000  0.50000000  0.81250000  1
  V  V3214  1  0.75000000  0.50000000  0.87500000  1
  V  V3215  1  0.75000000  0.50000000  0.93750000  1
  V  V3216  1  0.75000000  0.56250000  0.00000000  1
  V  V3217  1  0.75000000  0.56250000  0.06250000  1
  V  V3218  1  0.75000000  0.56250000  0.12500000  1
  V  V3219  1  0.75000000  0.56250000  0.18750000  1
  V  V3220  1  0.75000000  0.56250000  0.25000000  1
  V  V3221  1  0.75000000  0.56250000  0.31250000  1
  V  V3222  1  0.75000000  0.56250000  0.37500000  1
  V  V3223  1  0.75000000  0.56250000  0.43750000  1
  V  V3224  1  0.75000000  0.56250000  0.50000000  1
  Ti  Ti3225  1  0.75000000  0.56250000  0.56250000  1
  Zr  Zr3226  1  0.75000000  0.56250000  0.62500000  1
  Zr  Zr3227  1  0.75000000  0.56250000  0.68750000  1
  Ti  Ti3228  1  0.75000000  0.56250000  0.75000000  1
  V  V3229  1  0.75000000  0.56250000  0.81250000  1
  V  V3230  1  0.75000000  0.56250000  0.87500000  1
  V  V3231  1  0.75000000  0.56250000  0.93750000  1
  W  W3232  1  0.75000000  0.62500000  0.00000000  1
  V  V3233  1  0.75000000  0.62500000  0.06250000  1
  V  V3234  1  0.75000000  0.62500000  0.12500000  1
  V  V3235  1  0.75000000  0.62500000  0.18750000  1
  V  V3236  1  0.75000000  0.62500000  0.25000000  1
  V  V3237  1  0.75000000  0.62500000  0.31250000  1
  V  V3238  1  0.75000000  0.62500000  0.37500000  1
  V  V3239  1  0.75000000  0.62500000  0.43750000  1
  V  V3240  1  0.75000000  0.62500000  0.50000000  1
  Ti  Ti3241  1  0.75000000  0.62500000  0.56250000  1
  Ti  Ti3242  1  0.75000000  0.62500000  0.62500000  1
  Zr  Zr3243  1  0.75000000  0.62500000  0.68750000  1
  Zr  Zr3244  1  0.75000000  0.62500000  0.75000000  1
  Ti  Ti3245  1  0.75000000  0.62500000  0.81250000  1
  V  V3246  1  0.75000000  0.62500000  0.87500000  1
  V  V3247  1  0.75000000  0.62500000  0.93750000  1
  V  V3248  1  0.75000000  0.68750000  0.00000000  1
  V  V3249  1  0.75000000  0.68750000  0.06250000  1
  V  V3250  1  0.75000000  0.68750000  0.12500000  1
  V  V3251  1  0.75000000  0.68750000  0.18750000  1
  V  V3252  1  0.75000000  0.68750000  0.25000000  1
  V  V3253  1  0.75000000  0.68750000  0.31250000  1
  V  V3254  1  0.75000000  0.68750000  0.37500000  1
  W  W3255  1  0.75000000  0.68750000  0.43750000  1
  V  V3256  1  0.75000000  0.68750000  0.50000000  1
  V  V3257  1  0.75000000  0.68750000  0.56250000  1
  Ti  Ti3258  1  0.75000000  0.68750000  0.62500000  1
  Zr  Zr3259  1  0.75000000  0.68750000  0.68750000  1
  Zr  Zr3260  1  0.75000000  0.68750000  0.75000000  1
  Ti  Ti3261  1  0.75000000  0.68750000  0.81250000  1
  V  V3262  1  0.75000000  0.68750000  0.87500000  1
  V  V3263  1  0.75000000  0.68750000  0.93750000  1
  W  W3264  1  0.75000000  0.75000000  0.00000000  1
  W  W3265  1  0.75000000  0.75000000  0.06250000  1
  V  V3266  1  0.75000000  0.75000000  0.12500000  1
  V  V3267  1  0.75000000  0.75000000  0.18750000  1
  V  V3268  1  0.75000000  0.75000000  0.25000000  1
  V  V3269  1  0.75000000  0.75000000  0.31250000  1
  V  V3270  1  0.75000000  0.75000000  0.37500000  1
  V  V3271  1  0.75000000  0.75000000  0.43750000  1
  V  V3272  1  0.75000000  0.75000000  0.50000000  1
  V  V3273  1  0.75000000  0.75000000  0.56250000  1
  V  V3274  1  0.75000000  0.75000000  0.62500000  1
  V  V3275  1  0.75000000  0.75000000  0.68750000  1
  Ti  Ti3276  1  0.75000000  0.75000000  0.75000000  1
  V  V3277  1  0.75000000  0.75000000  0.81250000  1
  V  V3278  1  0.75000000  0.75000000  0.87500000  1
  V  V3279  1  0.75000000  0.75000000  0.93750000  1
  V  V3280  1  0.75000000  0.81250000  0.00000000  1
  V  V3281  1  0.75000000  0.81250000  0.06250000  1
  V  V3282  1  0.75000000  0.81250000  0.12500000  1
  V  V3283  1  0.75000000  0.81250000  0.18750000  1
  V  V3284  1  0.75000000  0.81250000  0.25000000  1
  W  W3285  1  0.75000000  0.81250000  0.31250000  1
  V  V3286  1  0.75000000  0.81250000  0.37500000  1
  V  V3287  1  0.75000000  0.81250000  0.43750000  1
  V  V3288  1  0.75000000  0.81250000  0.50000000  1
  V  V3289  1  0.75000000  0.81250000  0.56250000  1
  W  W3290  1  0.75000000  0.81250000  0.62500000  1
  V  V3291  1  0.75000000  0.81250000  0.68750000  1
  V  V3292  1  0.75000000  0.81250000  0.75000000  1
  V  V3293  1  0.75000000  0.81250000  0.81250000  1
  V  V3294  1  0.75000000  0.81250000  0.87500000  1
  V  V3295  1  0.75000000  0.81250000  0.93750000  1
  V  V3296  1  0.75000000  0.87500000  0.00000000  1
  V  V3297  1  0.75000000  0.87500000  0.06250000  1
  V  V3298  1  0.75000000  0.87500000  0.12500000  1
  V  V3299  1  0.75000000  0.87500000  0.18750000  1
  V  V3300  1  0.75000000  0.87500000  0.25000000  1
  Cr  Cr3301  1  0.75000000  0.87500000  0.31250000  1
  V  V3302  1  0.75000000  0.87500000  0.37500000  1
  W  W3303  1  0.75000000  0.87500000  0.43750000  1
  V  V3304  1  0.75000000  0.87500000  0.50000000  1
  V  V3305  1  0.75000000  0.87500000  0.56250000  1
  V  V3306  1  0.75000000  0.87500000  0.62500000  1
  V  V3307  1  0.75000000  0.87500000  0.68750000  1
  V  V3308  1  0.75000000  0.87500000  0.75000000  1
  V  V3309  1  0.75000000  0.87500000  0.81250000  1
  V  V3310  1  0.75000000  0.87500000  0.87500000  1
  V  V3311  1  0.75000000  0.87500000  0.93750000  1
  V  V3312  1  0.75000000  0.93750000  0.00000000  1
  W  W3313  1  0.75000000  0.93750000  0.06250000  1
  V  V3314  1  0.75000000  0.93750000  0.12500000  1
  V  V3315  1  0.75000000  0.93750000  0.18750000  1
  V  V3316  1  0.75000000  0.93750000  0.25000000  1
  V  V3317  1  0.75000000  0.93750000  0.31250000  1
  V  V3318  1  0.75000000  0.93750000  0.37500000  1
  V  V3319  1  0.75000000  0.93750000  0.43750000  1
  V  V3320  1  0.75000000  0.93750000  0.50000000  1
  V  V3321  1  0.75000000  0.93750000  0.56250000  1
  V  V3322  1  0.75000000  0.93750000  0.62500000  1
  V  V3323  1  0.75000000  0.93750000  0.68750000  1
  V  V3324  1  0.75000000  0.93750000  0.75000000  1
  V  V3325  1  0.75000000  0.93750000  0.81250000  1
  V  V3326  1  0.75000000  0.93750000  0.87500000  1
  V  V3327  1  0.75000000  0.93750000  0.93750000  1
  W  W3328  1  0.81250000  0.00000000  0.00000000  1
  V  V3329  1  0.81250000  0.00000000  0.06250000  1
  V  V3330  1  0.81250000  0.00000000  0.12500000  1
  V  V3331  1  0.81250000  0.00000000  0.18750000  1
  V  V3332  1  0.81250000  0.00000000  0.25000000  1
  V  V3333  1  0.81250000  0.00000000  0.31250000  1
  V  V3334  1  0.81250000  0.00000000  0.37500000  1
  V  V3335  1  0.81250000  0.00000000  0.43750000  1
  V  V3336  1  0.81250000  0.00000000  0.50000000  1
  V  V3337  1  0.81250000  0.00000000  0.56250000  1
  V  V3338  1  0.81250000  0.00000000  0.62500000  1
  W  W3339  1  0.81250000  0.00000000  0.68750000  1
  V  V3340  1  0.81250000  0.00000000  0.75000000  1
  V  V3341  1  0.81250000  0.00000000  0.81250000  1
  V  V3342  1  0.81250000  0.00000000  0.87500000  1
  V  V3343  1  0.81250000  0.00000000  0.93750000  1
  V  V3344  1  0.81250000  0.06250000  0.00000000  1
  V  V3345  1  0.81250000  0.06250000  0.06250000  1
  V  V3346  1  0.81250000  0.06250000  0.12500000  1
  V  V3347  1  0.81250000  0.06250000  0.18750000  1
  V  V3348  1  0.81250000  0.06250000  0.25000000  1
  V  V3349  1  0.81250000  0.06250000  0.31250000  1
  V  V3350  1  0.81250000  0.06250000  0.37500000  1
  V  V3351  1  0.81250000  0.06250000  0.43750000  1
  V  V3352  1  0.81250000  0.06250000  0.50000000  1
  V  V3353  1  0.81250000  0.06250000  0.56250000  1
  W  W3354  1  0.81250000  0.06250000  0.62500000  1
  V  V3355  1  0.81250000  0.06250000  0.68750000  1
  V  V3356  1  0.81250000  0.06250000  0.75000000  1
  V  V3357  1  0.81250000  0.06250000  0.81250000  1
  V  V3358  1  0.81250000  0.06250000  0.87500000  1
  V  V3359  1  0.81250000  0.06250000  0.93750000  1
  V  V3360  1  0.81250000  0.12500000  0.00000000  1
  W  W3361  1  0.81250000  0.12500000  0.06250000  1
  V  V3362  1  0.81250000  0.12500000  0.12500000  1
  V  V3363  1  0.81250000  0.12500000  0.18750000  1
  V  V3364  1  0.81250000  0.12500000  0.25000000  1
  V  V3365  1  0.81250000  0.12500000  0.31250000  1
  V  V3366  1  0.81250000  0.12500000  0.37500000  1
  V  V3367  1  0.81250000  0.12500000  0.43750000  1
  V  V3368  1  0.81250000  0.12500000  0.50000000  1
  V  V3369  1  0.81250000  0.12500000  0.56250000  1
  V  V3370  1  0.81250000  0.12500000  0.62500000  1
  V  V3371  1  0.81250000  0.12500000  0.68750000  1
  V  V3372  1  0.81250000  0.12500000  0.75000000  1
  V  V3373  1  0.81250000  0.12500000  0.81250000  1
  Cr  Cr3374  1  0.81250000  0.12500000  0.87500000  1
  V  V3375  1  0.81250000  0.12500000  0.93750000  1
  V  V3376  1  0.81250000  0.18750000  0.00000000  1
  V  V3377  1  0.81250000  0.18750000  0.06250000  1
  W  W3378  1  0.81250000  0.18750000  0.12500000  1
  V  V3379  1  0.81250000  0.18750000  0.18750000  1
  Cr  Cr3380  1  0.81250000  0.18750000  0.25000000  1
  V  V3381  1  0.81250000  0.18750000  0.31250000  1
  V  V3382  1  0.81250000  0.18750000  0.37500000  1
  V  V3383  1  0.81250000  0.18750000  0.43750000  1
  V  V3384  1  0.81250000  0.18750000  0.50000000  1
  V  V3385  1  0.81250000  0.18750000  0.56250000  1
  V  V3386  1  0.81250000  0.18750000  0.62500000  1
  V  V3387  1  0.81250000  0.18750000  0.68750000  1
  Cr  Cr3388  1  0.81250000  0.18750000  0.75000000  1
  V  V3389  1  0.81250000  0.18750000  0.81250000  1
  V  V3390  1  0.81250000  0.18750000  0.87500000  1
  V  V3391  1  0.81250000  0.18750000  0.93750000  1
  V  V3392  1  0.81250000  0.25000000  0.00000000  1
  V  V3393  1  0.81250000  0.25000000  0.06250000  1
  V  V3394  1  0.81250000  0.25000000  0.12500000  1
  V  V3395  1  0.81250000  0.25000000  0.18750000  1
  V  V3396  1  0.81250000  0.25000000  0.25000000  1
  V  V3397  1  0.81250000  0.25000000  0.31250000  1
  V  V3398  1  0.81250000  0.25000000  0.37500000  1
  V  V3399  1  0.81250000  0.25000000  0.43750000  1
  V  V3400  1  0.81250000  0.25000000  0.50000000  1
  V  V3401  1  0.81250000  0.25000000  0.56250000  1
  V  V3402  1  0.81250000  0.25000000  0.62500000  1
  V  V3403  1  0.81250000  0.25000000  0.68750000  1
  V  V3404  1  0.81250000  0.25000000  0.75000000  1
  V  V3405  1  0.81250000  0.25000000  0.81250000  1
  V  V3406  1  0.81250000  0.25000000  0.87500000  1
  V  V3407  1  0.81250000  0.25000000  0.93750000  1
  V  V3408  1  0.81250000  0.31250000  0.00000000  1
  V  V3409  1  0.81250000  0.31250000  0.06250000  1
  V  V3410  1  0.81250000  0.31250000  0.12500000  1
  V  V3411  1  0.81250000  0.31250000  0.18750000  1
  V  V3412  1  0.81250000  0.31250000  0.25000000  1
  V  V3413  1  0.81250000  0.31250000  0.31250000  1
  W  W3414  1  0.81250000  0.31250000  0.37500000  1
  W  W3415  1  0.81250000  0.31250000  0.43750000  1
  V  V3416  1  0.81250000  0.31250000  0.50000000  1
  V  V3417  1  0.81250000  0.31250000  0.56250000  1
  W  W3418  1  0.81250000  0.31250000  0.62500000  1
  V  V3419  1  0.81250000  0.31250000  0.68750000  1
  V  V3420  1  0.81250000  0.31250000  0.75000000  1
  V  V3421  1  0.81250000  0.31250000  0.81250000  1
  W  W3422  1  0.81250000  0.31250000  0.87500000  1
  V  V3423  1  0.81250000  0.31250000  0.93750000  1
  V  V3424  1  0.81250000  0.37500000  0.00000000  1
  V  V3425  1  0.81250000  0.37500000  0.06250000  1
  V  V3426  1  0.81250000  0.37500000  0.12500000  1
  V  V3427  1  0.81250000  0.37500000  0.18750000  1
  Cr  Cr3428  1  0.81250000  0.37500000  0.25000000  1
  V  V3429  1  0.81250000  0.37500000  0.31250000  1
  V  V3430  1  0.81250000  0.37500000  0.37500000  1
  V  V3431  1  0.81250000  0.37500000  0.43750000  1
  V  V3432  1  0.81250000  0.37500000  0.50000000  1
  V  V3433  1  0.81250000  0.37500000  0.56250000  1
  V  V3434  1  0.81250000  0.37500000  0.62500000  1
  V  V3435  1  0.81250000  0.37500000  0.68750000  1
  W  W3436  1  0.81250000  0.37500000  0.75000000  1
  V  V3437  1  0.81250000  0.37500000  0.81250000  1
  Cr  Cr3438  1  0.81250000  0.37500000  0.87500000  1
  V  V3439  1  0.81250000  0.37500000  0.93750000  1
  V  V3440  1  0.81250000  0.43750000  0.00000000  1
  V  V3441  1  0.81250000  0.43750000  0.06250000  1
  V  V3442  1  0.81250000  0.43750000  0.12500000  1
  V  V3443  1  0.81250000  0.43750000  0.18750000  1
  V  V3444  1  0.81250000  0.43750000  0.25000000  1
  V  V3445  1  0.81250000  0.43750000  0.31250000  1
  V  V3446  1  0.81250000  0.43750000  0.37500000  1
  W  W3447  1  0.81250000  0.43750000  0.43750000  1
  V  V3448  1  0.81250000  0.43750000  0.50000000  1
  V  V3449  1  0.81250000  0.43750000  0.56250000  1
  V  V3450  1  0.81250000  0.43750000  0.62500000  1
  V  V3451  1  0.81250000  0.43750000  0.68750000  1
  V  V3452  1  0.81250000  0.43750000  0.75000000  1
  V  V3453  1  0.81250000  0.43750000  0.81250000  1
  V  V3454  1  0.81250000  0.43750000  0.87500000  1
  V  V3455  1  0.81250000  0.43750000  0.93750000  1
  V  V3456  1  0.81250000  0.50000000  0.00000000  1
  V  V3457  1  0.81250000  0.50000000  0.06250000  1
  V  V3458  1  0.81250000  0.50000000  0.12500000  1
  V  V3459  1  0.81250000  0.50000000  0.18750000  1
  V  V3460  1  0.81250000  0.50000000  0.25000000  1
  V  V3461  1  0.81250000  0.50000000  0.31250000  1
  V  V3462  1  0.81250000  0.50000000  0.37500000  1
  V  V3463  1  0.81250000  0.50000000  0.43750000  1
  V  V3464  1  0.81250000  0.50000000  0.50000000  1
  V  V3465  1  0.81250000  0.50000000  0.56250000  1
  V  V3466  1  0.81250000  0.50000000  0.62500000  1
  V  V3467  1  0.81250000  0.50000000  0.68750000  1
  V  V3468  1  0.81250000  0.50000000  0.75000000  1
  V  V3469  1  0.81250000  0.50000000  0.81250000  1
  V  V3470  1  0.81250000  0.50000000  0.87500000  1
  V  V3471  1  0.81250000  0.50000000  0.93750000  1
  V  V3472  1  0.81250000  0.56250000  0.00000000  1
  V  V3473  1  0.81250000  0.56250000  0.06250000  1
  V  V3474  1  0.81250000  0.56250000  0.12500000  1
  V  V3475  1  0.81250000  0.56250000  0.18750000  1
  V  V3476  1  0.81250000  0.56250000  0.25000000  1
  V  V3477  1  0.81250000  0.56250000  0.31250000  1
  V  V3478  1  0.81250000  0.56250000  0.37500000  1
  V  V3479  1  0.81250000  0.56250000  0.43750000  1
  V  V3480  1  0.81250000  0.56250000  0.50000000  1
  V  V3481  1  0.81250000  0.56250000  0.56250000  1
  V  V3482  1  0.81250000  0.56250000  0.62500000  1
  V  V3483  1  0.81250000  0.56250000  0.68750000  1
  V  V3484  1  0.81250000  0.56250000  0.75000000  1
  V  V3485  1  0.81250000  0.56250000  0.81250000  1
  V  V3486  1  0.81250000  0.56250000  0.87500000  1
  V  V3487  1  0.81250000  0.56250000  0.93750000  1
  V  V3488  1  0.81250000  0.62500000  0.00000000  1
  V  V3489  1  0.81250000  0.62500000  0.06250000  1
  V  V3490  1  0.81250000  0.62500000  0.12500000  1
  V  V3491  1  0.81250000  0.62500000  0.18750000  1
  V  V3492  1  0.81250000  0.62500000  0.25000000  1
  V  V3493  1  0.81250000  0.62500000  0.31250000  1
  W  W3494  1  0.81250000  0.62500000  0.37500000  1
  V  V3495  1  0.81250000  0.62500000  0.43750000  1
  V  V3496  1  0.81250000  0.62500000  0.50000000  1
  V  V3497  1  0.81250000  0.62500000  0.56250000  1
  Ti  Ti3498  1  0.81250000  0.62500000  0.62500000  1
  Ti  Ti3499  1  0.81250000  0.62500000  0.68750000  1
  V  V3500  1  0.81250000  0.62500000  0.75000000  1
  V  V3501  1  0.81250000  0.62500000  0.81250000  1
  V  V3502  1  0.81250000  0.62500000  0.87500000  1
  V  V3503  1  0.81250000  0.62500000  0.93750000  1
  V  V3504  1  0.81250000  0.68750000  0.00000000  1
  W  W3505  1  0.81250000  0.68750000  0.06250000  1
  V  V3506  1  0.81250000  0.68750000  0.12500000  1
  V  V3507  1  0.81250000  0.68750000  0.18750000  1
  V  V3508  1  0.81250000  0.68750000  0.25000000  1
  V  V3509  1  0.81250000  0.68750000  0.31250000  1
  V  V3510  1  0.81250000  0.68750000  0.37500000  1
  V  V3511  1  0.81250000  0.68750000  0.43750000  1
  V  V3512  1  0.81250000  0.68750000  0.50000000  1
  V  V3513  1  0.81250000  0.68750000  0.56250000  1
  Ti  Ti3514  1  0.81250000  0.68750000  0.62500000  1
  V  V3515  1  0.81250000  0.68750000  0.68750000  1
  Ti  Ti3516  1  0.81250000  0.68750000  0.75000000  1
  V  V3517  1  0.81250000  0.68750000  0.81250000  1
  V  V3518  1  0.81250000  0.68750000  0.87500000  1
  V  V3519  1  0.81250000  0.68750000  0.93750000  1
  V  V3520  1  0.81250000  0.75000000  0.00000000  1
  W  W3521  1  0.81250000  0.75000000  0.06250000  1
  V  V3522  1  0.81250000  0.75000000  0.12500000  1
  W  W3523  1  0.81250000  0.75000000  0.18750000  1
  V  V3524  1  0.81250000  0.75000000  0.25000000  1
  V  V3525  1  0.81250000  0.75000000  0.31250000  1
  V  V3526  1  0.81250000  0.75000000  0.37500000  1
  V  V3527  1  0.81250000  0.75000000  0.43750000  1
  V  V3528  1  0.81250000  0.75000000  0.50000000  1
  V  V3529  1  0.81250000  0.75000000  0.56250000  1
  V  V3530  1  0.81250000  0.75000000  0.62500000  1
  V  V3531  1  0.81250000  0.75000000  0.68750000  1
  V  V3532  1  0.81250000  0.75000000  0.75000000  1
  V  V3533  1  0.81250000  0.75000000  0.81250000  1
  V  V3534  1  0.81250000  0.75000000  0.87500000  1
  V  V3535  1  0.81250000  0.75000000  0.93750000  1
  V  V3536  1  0.81250000  0.81250000  0.00000000  1
  V  V3537  1  0.81250000  0.81250000  0.06250000  1
  V  V3538  1  0.81250000  0.81250000  0.12500000  1
  V  V3539  1  0.81250000  0.81250000  0.18750000  1
  V  V3540  1  0.81250000  0.81250000  0.25000000  1
  V  V3541  1  0.81250000  0.81250000  0.31250000  1
  V  V3542  1  0.81250000  0.81250000  0.37500000  1
  V  V3543  1  0.81250000  0.81250000  0.43750000  1
  V  V3544  1  0.81250000  0.81250000  0.50000000  1
  V  V3545  1  0.81250000  0.81250000  0.56250000  1
  V  V3546  1  0.81250000  0.81250000  0.62500000  1
  V  V3547  1  0.81250000  0.81250000  0.68750000  1
  V  V3548  1  0.81250000  0.81250000  0.75000000  1
  V  V3549  1  0.81250000  0.81250000  0.81250000  1
  V  V3550  1  0.81250000  0.81250000  0.87500000  1
  V  V3551  1  0.81250000  0.81250000  0.93750000  1
  V  V3552  1  0.81250000  0.87500000  0.00000000  1
  V  V3553  1  0.81250000  0.87500000  0.06250000  1
  V  V3554  1  0.81250000  0.87500000  0.12500000  1
  V  V3555  1  0.81250000  0.87500000  0.18750000  1
  V  V3556  1  0.81250000  0.87500000  0.25000000  1
  V  V3557  1  0.81250000  0.87500000  0.31250000  1
  W  W3558  1  0.81250000  0.87500000  0.37500000  1
  V  V3559  1  0.81250000  0.87500000  0.43750000  1
  V  V3560  1  0.81250000  0.87500000  0.50000000  1
  V  V3561  1  0.81250000  0.87500000  0.56250000  1
  V  V3562  1  0.81250000  0.87500000  0.62500000  1
  V  V3563  1  0.81250000  0.87500000  0.68750000  1
  W  W3564  1  0.81250000  0.87500000  0.75000000  1
  V  V3565  1  0.81250000  0.87500000  0.81250000  1
  V  V3566  1  0.81250000  0.87500000  0.87500000  1
  V  V3567  1  0.81250000  0.87500000  0.93750000  1
  V  V3568  1  0.81250000  0.93750000  0.00000000  1
  V  V3569  1  0.81250000  0.93750000  0.06250000  1
  V  V3570  1  0.81250000  0.93750000  0.12500000  1
  V  V3571  1  0.81250000  0.93750000  0.18750000  1
  V  V3572  1  0.81250000  0.93750000  0.25000000  1
  V  V3573  1  0.81250000  0.93750000  0.31250000  1
  V  V3574  1  0.81250000  0.93750000  0.37500000  1
  V  V3575  1  0.81250000  0.93750000  0.43750000  1
  V  V3576  1  0.81250000  0.93750000  0.50000000  1
  W  W3577  1  0.81250000  0.93750000  0.56250000  1
  V  V3578  1  0.81250000  0.93750000  0.62500000  1
  V  V3579  1  0.81250000  0.93750000  0.68750000  1
  V  V3580  1  0.81250000  0.93750000  0.75000000  1
  V  V3581  1  0.81250000  0.93750000  0.81250000  1
  V  V3582  1  0.81250000  0.93750000  0.87500000  1
  V  V3583  1  0.81250000  0.93750000  0.93750000  1
  V  V3584  1  0.87500000  0.00000000  0.00000000  1
  V  V3585  1  0.87500000  0.00000000  0.06250000  1
  V  V3586  1  0.87500000  0.00000000  0.12500000  1
  V  V3587  1  0.87500000  0.00000000  0.18750000  1
  V  V3588  1  0.87500000  0.00000000  0.25000000  1
  V  V3589  1  0.87500000  0.00000000  0.31250000  1
  V  V3590  1  0.87500000  0.00000000  0.37500000  1
  V  V3591  1  0.87500000  0.00000000  0.43750000  1
  V  V3592  1  0.87500000  0.00000000  0.50000000  1
  V  V3593  1  0.87500000  0.00000000  0.56250000  1
  V  V3594  1  0.87500000  0.00000000  0.62500000  1
  V  V3595  1  0.87500000  0.00000000  0.68750000  1
  V  V3596  1  0.87500000  0.00000000  0.75000000  1
  V  V3597  1  0.87500000  0.00000000  0.81250000  1
  V  V3598  1  0.87500000  0.00000000  0.87500000  1
  V  V3599  1  0.87500000  0.00000000  0.93750000  1
  V  V3600  1  0.87500000  0.06250000  0.00000000  1
  V  V3601  1  0.87500000  0.06250000  0.06250000  1
  V  V3602  1  0.87500000  0.06250000  0.12500000  1
  V  V3603  1  0.87500000  0.06250000  0.18750000  1
  V  V3604  1  0.87500000  0.06250000  0.25000000  1
  V  V3605  1  0.87500000  0.06250000  0.31250000  1
  V  V3606  1  0.87500000  0.06250000  0.37500000  1
  V  V3607  1  0.87500000  0.06250000  0.43750000  1
  V  V3608  1  0.87500000  0.06250000  0.50000000  1
  V  V3609  1  0.87500000  0.06250000  0.56250000  1
  V  V3610  1  0.87500000  0.06250000  0.62500000  1
  V  V3611  1  0.87500000  0.06250000  0.68750000  1
  V  V3612  1  0.87500000  0.06250000  0.75000000  1
  V  V3613  1  0.87500000  0.06250000  0.81250000  1
  V  V3614  1  0.87500000  0.06250000  0.87500000  1
  V  V3615  1  0.87500000  0.06250000  0.93750000  1
  V  V3616  1  0.87500000  0.12500000  0.00000000  1
  V  V3617  1  0.87500000  0.12500000  0.06250000  1
  V  V3618  1  0.87500000  0.12500000  0.12500000  1
  V  V3619  1  0.87500000  0.12500000  0.18750000  1
  V  V3620  1  0.87500000  0.12500000  0.25000000  1
  V  V3621  1  0.87500000  0.12500000  0.31250000  1
  V  V3622  1  0.87500000  0.12500000  0.37500000  1
  V  V3623  1  0.87500000  0.12500000  0.43750000  1
  V  V3624  1  0.87500000  0.12500000  0.50000000  1
  V  V3625  1  0.87500000  0.12500000  0.56250000  1
  V  V3626  1  0.87500000  0.12500000  0.62500000  1
  V  V3627  1  0.87500000  0.12500000  0.68750000  1
  V  V3628  1  0.87500000  0.12500000  0.75000000  1
  V  V3629  1  0.87500000  0.12500000  0.81250000  1
  V  V3630  1  0.87500000  0.12500000  0.87500000  1
  V  V3631  1  0.87500000  0.12500000  0.93750000  1
  V  V3632  1  0.87500000  0.18750000  0.00000000  1
  V  V3633  1  0.87500000  0.18750000  0.06250000  1
  V  V3634  1  0.87500000  0.18750000  0.12500000  1
  V  V3635  1  0.87500000  0.18750000  0.18750000  1
  V  V3636  1  0.87500000  0.18750000  0.25000000  1
  V  V3637  1  0.87500000  0.18750000  0.31250000  1
  V  V3638  1  0.87500000  0.18750000  0.37500000  1
  V  V3639  1  0.87500000  0.18750000  0.43750000  1
  V  V3640  1  0.87500000  0.18750000  0.50000000  1
  V  V3641  1  0.87500000  0.18750000  0.56250000  1
  V  V3642  1  0.87500000  0.18750000  0.62500000  1
  V  V3643  1  0.87500000  0.18750000  0.68750000  1
  V  V3644  1  0.87500000  0.18750000  0.75000000  1
  V  V3645  1  0.87500000  0.18750000  0.81250000  1
  V  V3646  1  0.87500000  0.18750000  0.87500000  1
  Cr  Cr3647  1  0.87500000  0.18750000  0.93750000  1
  V  V3648  1  0.87500000  0.25000000  0.00000000  1
  V  V3649  1  0.87500000  0.25000000  0.06250000  1
  V  V3650  1  0.87500000  0.25000000  0.12500000  1
  V  V3651  1  0.87500000  0.25000000  0.18750000  1
  V  V3652  1  0.87500000  0.25000000  0.25000000  1
  V  V3653  1  0.87500000  0.25000000  0.31250000  1
  W  W3654  1  0.87500000  0.25000000  0.37500000  1
  V  V3655  1  0.87500000  0.25000000  0.43750000  1
  V  V3656  1  0.87500000  0.25000000  0.50000000  1
  V  V3657  1  0.87500000  0.25000000  0.56250000  1
  V  V3658  1  0.87500000  0.25000000  0.62500000  1
  V  V3659  1  0.87500000  0.25000000  0.68750000  1
  V  V3660  1  0.87500000  0.25000000  0.75000000  1
  V  V3661  1  0.87500000  0.25000000  0.81250000  1
  V  V3662  1  0.87500000  0.25000000  0.87500000  1
  V  V3663  1  0.87500000  0.25000000  0.93750000  1
  V  V3664  1  0.87500000  0.31250000  0.00000000  1
  V  V3665  1  0.87500000  0.31250000  0.06250000  1
  V  V3666  1  0.87500000  0.31250000  0.12500000  1
  V  V3667  1  0.87500000  0.31250000  0.18750000  1
  V  V3668  1  0.87500000  0.31250000  0.25000000  1
  V  V3669  1  0.87500000  0.31250000  0.31250000  1
  W  W3670  1  0.87500000  0.31250000  0.37500000  1
  V  V3671  1  0.87500000  0.31250000  0.43750000  1
  V  V3672  1  0.87500000  0.31250000  0.50000000  1
  V  V3673  1  0.87500000  0.31250000  0.56250000  1
  V  V3674  1  0.87500000  0.31250000  0.62500000  1
  V  V3675  1  0.87500000  0.31250000  0.68750000  1
  V  V3676  1  0.87500000  0.31250000  0.75000000  1
  V  V3677  1  0.87500000  0.31250000  0.81250000  1
  V  V3678  1  0.87500000  0.31250000  0.87500000  1
  V  V3679  1  0.87500000  0.31250000  0.93750000  1
  V  V3680  1  0.87500000  0.37500000  0.00000000  1
  V  V3681  1  0.87500000  0.37500000  0.06250000  1
  V  V3682  1  0.87500000  0.37500000  0.12500000  1
  V  V3683  1  0.87500000  0.37500000  0.18750000  1
  V  V3684  1  0.87500000  0.37500000  0.25000000  1
  V  V3685  1  0.87500000  0.37500000  0.31250000  1
  V  V3686  1  0.87500000  0.37500000  0.37500000  1
  V  V3687  1  0.87500000  0.37500000  0.43750000  1
  V  V3688  1  0.87500000  0.37500000  0.50000000  1
  V  V3689  1  0.87500000  0.37500000  0.56250000  1
  V  V3690  1  0.87500000  0.37500000  0.62500000  1
  V  V3691  1  0.87500000  0.37500000  0.68750000  1
  V  V3692  1  0.87500000  0.37500000  0.75000000  1
  V  V3693  1  0.87500000  0.37500000  0.81250000  1
  V  V3694  1  0.87500000  0.37500000  0.87500000  1
  V  V3695  1  0.87500000  0.37500000  0.93750000  1
  Cr  Cr3696  1  0.87500000  0.43750000  0.00000000  1
  V  V3697  1  0.87500000  0.43750000  0.06250000  1
  V  V3698  1  0.87500000  0.43750000  0.12500000  1
  W  W3699  1  0.87500000  0.43750000  0.18750000  1
  V  V3700  1  0.87500000  0.43750000  0.25000000  1
  V  V3701  1  0.87500000  0.43750000  0.31250000  1
  V  V3702  1  0.87500000  0.43750000  0.37500000  1
  V  V3703  1  0.87500000  0.43750000  0.43750000  1
  V  V3704  1  0.87500000  0.43750000  0.50000000  1
  V  V3705  1  0.87500000  0.43750000  0.56250000  1
  Cr  Cr3706  1  0.87500000  0.43750000  0.62500000  1
  V  V3707  1  0.87500000  0.43750000  0.68750000  1
  V  V3708  1  0.87500000  0.43750000  0.75000000  1
  V  V3709  1  0.87500000  0.43750000  0.81250000  1
  V  V3710  1  0.87500000  0.43750000  0.87500000  1
  V  V3711  1  0.87500000  0.43750000  0.93750000  1
  V  V3712  1  0.87500000  0.50000000  0.00000000  1
  V  V3713  1  0.87500000  0.50000000  0.06250000  1
  V  V3714  1  0.87500000  0.50000000  0.12500000  1
  V  V3715  1  0.87500000  0.50000000  0.18750000  1
  V  V3716  1  0.87500000  0.50000000  0.25000000  1
  W  W3717  1  0.87500000  0.50000000  0.31250000  1
  V  V3718  1  0.87500000  0.50000000  0.37500000  1
  V  V3719  1  0.87500000  0.50000000  0.43750000  1
  V  V3720  1  0.87500000  0.50000000  0.50000000  1
  V  V3721  1  0.87500000  0.50000000  0.56250000  1
  V  V3722  1  0.87500000  0.50000000  0.62500000  1
  V  V3723  1  0.87500000  0.50000000  0.68750000  1
  V  V3724  1  0.87500000  0.50000000  0.75000000  1
  V  V3725  1  0.87500000  0.50000000  0.81250000  1
  V  V3726  1  0.87500000  0.50000000  0.87500000  1
  V  V3727  1  0.87500000  0.50000000  0.93750000  1
  V  V3728  1  0.87500000  0.56250000  0.00000000  1
  V  V3729  1  0.87500000  0.56250000  0.06250000  1
  V  V3730  1  0.87500000  0.56250000  0.12500000  1
  V  V3731  1  0.87500000  0.56250000  0.18750000  1
  V  V3732  1  0.87500000  0.56250000  0.25000000  1
  V  V3733  1  0.87500000  0.56250000  0.31250000  1
  V  V3734  1  0.87500000  0.56250000  0.37500000  1
  V  V3735  1  0.87500000  0.56250000  0.43750000  1
  V  V3736  1  0.87500000  0.56250000  0.50000000  1
  V  V3737  1  0.87500000  0.56250000  0.56250000  1
  V  V3738  1  0.87500000  0.56250000  0.62500000  1
  V  V3739  1  0.87500000  0.56250000  0.68750000  1
  V  V3740  1  0.87500000  0.56250000  0.75000000  1
  V  V3741  1  0.87500000  0.56250000  0.81250000  1
  V  V3742  1  0.87500000  0.56250000  0.87500000  1
  V  V3743  1  0.87500000  0.56250000  0.93750000  1
  V  V3744  1  0.87500000  0.62500000  0.00000000  1
  W  W3745  1  0.87500000  0.62500000  0.06250000  1
  W  W3746  1  0.87500000  0.62500000  0.12500000  1
  V  V3747  1  0.87500000  0.62500000  0.18750000  1
  W  W3748  1  0.87500000  0.62500000  0.25000000  1
  V  V3749  1  0.87500000  0.62500000  0.31250000  1
  V  V3750  1  0.87500000  0.62500000  0.37500000  1
  V  V3751  1  0.87500000  0.62500000  0.43750000  1
  V  V3752  1  0.87500000  0.62500000  0.50000000  1
  V  V3753  1  0.87500000  0.62500000  0.56250000  1
  V  V3754  1  0.87500000  0.62500000  0.62500000  1
  V  V3755  1  0.87500000  0.62500000  0.68750000  1
  V  V3756  1  0.87500000  0.62500000  0.75000000  1
  V  V3757  1  0.87500000  0.62500000  0.81250000  1
  V  V3758  1  0.87500000  0.62500000  0.87500000  1
  V  V3759  1  0.87500000  0.62500000  0.93750000  1
  V  V3760  1  0.87500000  0.68750000  0.00000000  1
  V  V3761  1  0.87500000  0.68750000  0.06250000  1
  V  V3762  1  0.87500000  0.68750000  0.12500000  1
  V  V3763  1  0.87500000  0.68750000  0.18750000  1
  V  V3764  1  0.87500000  0.68750000  0.25000000  1
  V  V3765  1  0.87500000  0.68750000  0.31250000  1
  V  V3766  1  0.87500000  0.68750000  0.37500000  1
  V  V3767  1  0.87500000  0.68750000  0.43750000  1
  V  V3768  1  0.87500000  0.68750000  0.50000000  1
  V  V3769  1  0.87500000  0.68750000  0.56250000  1
  V  V3770  1  0.87500000  0.68750000  0.62500000  1
  V  V3771  1  0.87500000  0.68750000  0.68750000  1
  V  V3772  1  0.87500000  0.68750000  0.75000000  1
  V  V3773  1  0.87500000  0.68750000  0.81250000  1
  V  V3774  1  0.87500000  0.68750000  0.87500000  1
  V  V3775  1  0.87500000  0.68750000  0.93750000  1
  V  V3776  1  0.87500000  0.75000000  0.00000000  1
  V  V3777  1  0.87500000  0.75000000  0.06250000  1
  V  V3778  1  0.87500000  0.75000000  0.12500000  1
  V  V3779  1  0.87500000  0.75000000  0.18750000  1
  V  V3780  1  0.87500000  0.75000000  0.25000000  1
  V  V3781  1  0.87500000  0.75000000  0.31250000  1
  V  V3782  1  0.87500000  0.75000000  0.37500000  1
  Cr  Cr3783  1  0.87500000  0.75000000  0.43750000  1
  V  V3784  1  0.87500000  0.75000000  0.50000000  1
  V  V3785  1  0.87500000  0.75000000  0.56250000  1
  W  W3786  1  0.87500000  0.75000000  0.62500000  1
  W  W3787  1  0.87500000  0.75000000  0.68750000  1
  V  V3788  1  0.87500000  0.75000000  0.75000000  1
  V  V3789  1  0.87500000  0.75000000  0.81250000  1
  V  V3790  1  0.87500000  0.75000000  0.87500000  1
  V  V3791  1  0.87500000  0.75000000  0.93750000  1
  V  V3792  1  0.87500000  0.81250000  0.00000000  1
  V  V3793  1  0.87500000  0.81250000  0.06250000  1
  V  V3794  1  0.87500000  0.81250000  0.12500000  1
  V  V3795  1  0.87500000  0.81250000  0.18750000  1
  V  V3796  1  0.87500000  0.81250000  0.25000000  1
  V  V3797  1  0.87500000  0.81250000  0.31250000  1
  V  V3798  1  0.87500000  0.81250000  0.37500000  1
  V  V3799  1  0.87500000  0.81250000  0.43750000  1
  V  V3800  1  0.87500000  0.81250000  0.50000000  1
  V  V3801  1  0.87500000  0.81250000  0.56250000  1
  V  V3802  1  0.87500000  0.81250000  0.62500000  1
  V  V3803  1  0.87500000  0.81250000  0.68750000  1
  V  V3804  1  0.87500000  0.81250000  0.75000000  1
  V  V3805  1  0.87500000  0.81250000  0.81250000  1
  V  V3806  1  0.87500000  0.81250000  0.87500000  1
  V  V3807  1  0.87500000  0.81250000  0.93750000  1
  V  V3808  1  0.87500000  0.87500000  0.00000000  1
  V  V3809  1  0.87500000  0.87500000  0.06250000  1
  V  V3810  1  0.87500000  0.87500000  0.12500000  1
  V  V3811  1  0.87500000  0.87500000  0.18750000  1
  V  V3812  1  0.87500000  0.87500000  0.25000000  1
  W  W3813  1  0.87500000  0.87500000  0.31250000  1
  V  V3814  1  0.87500000  0.87500000  0.37500000  1
  V  V3815  1  0.87500000  0.87500000  0.43750000  1
  W  W3816  1  0.87500000  0.87500000  0.50000000  1
  V  V3817  1  0.87500000  0.87500000  0.56250000  1
  V  V3818  1  0.87500000  0.87500000  0.62500000  1
  V  V3819  1  0.87500000  0.87500000  0.68750000  1
  V  V3820  1  0.87500000  0.87500000  0.75000000  1
  V  V3821  1  0.87500000  0.87500000  0.81250000  1
  V  V3822  1  0.87500000  0.87500000  0.87500000  1
  W  W3823  1  0.87500000  0.87500000  0.93750000  1
  V  V3824  1  0.87500000  0.93750000  0.00000000  1
  V  V3825  1  0.87500000  0.93750000  0.06250000  1
  V  V3826  1  0.87500000  0.93750000  0.12500000  1
  V  V3827  1  0.87500000  0.93750000  0.18750000  1
  V  V3828  1  0.87500000  0.93750000  0.25000000  1
  V  V3829  1  0.87500000  0.93750000  0.31250000  1
  V  V3830  1  0.87500000  0.93750000  0.37500000  1
  V  V3831  1  0.87500000  0.93750000  0.43750000  1
  V  V3832  1  0.87500000  0.93750000  0.50000000  1
  V  V3833  1  0.87500000  0.93750000  0.56250000  1
  V  V3834  1  0.87500000  0.93750000  0.62500000  1
  V  V3835  1  0.87500000  0.93750000  0.68750000  1
  V  V3836  1  0.87500000  0.93750000  0.75000000  1
  V  V3837  1  0.87500000  0.93750000  0.81250000  1
  V  V3838  1  0.87500000  0.93750000  0.87500000  1
  V  V3839  1  0.87500000  0.93750000  0.93750000  1
  V  V3840  1  0.93750000  0.00000000  0.00000000  1
  V  V3841  1  0.93750000  0.00000000  0.06250000  1
  W  W3842  1  0.93750000  0.00000000  0.12500000  1
  V  V3843  1  0.93750000  0.00000000  0.18750000  1
  V  V3844  1  0.93750000  0.00000000  0.25000000  1
  V  V3845  1  0.93750000  0.00000000  0.31250000  1
  V  V3846  1  0.93750000  0.00000000  0.37500000  1
  V  V3847  1  0.93750000  0.00000000  0.43750000  1
  V  V3848  1  0.93750000  0.00000000  0.50000000  1
  V  V3849  1  0.93750000  0.00000000  0.56250000  1
  V  V3850  1  0.93750000  0.00000000  0.62500000  1
  Cr  Cr3851  1  0.93750000  0.00000000  0.68750000  1
  V  V3852  1  0.93750000  0.00000000  0.75000000  1
  V  V3853  1  0.93750000  0.00000000  0.81250000  1
  V  V3854  1  0.93750000  0.00000000  0.87500000  1
  W  W3855  1  0.93750000  0.00000000  0.93750000  1
  V  V3856  1  0.93750000  0.06250000  0.00000000  1
  V  V3857  1  0.93750000  0.06250000  0.06250000  1
  V  V3858  1  0.93750000  0.06250000  0.12500000  1
  V  V3859  1  0.93750000  0.06250000  0.18750000  1
  Cr  Cr3860  1  0.93750000  0.06250000  0.25000000  1
  V  V3861  1  0.93750000  0.06250000  0.31250000  1
  V  V3862  1  0.93750000  0.06250000  0.37500000  1
  V  V3863  1  0.93750000  0.06250000  0.43750000  1
  V  V3864  1  0.93750000  0.06250000  0.50000000  1
  V  V3865  1  0.93750000  0.06250000  0.56250000  1
  V  V3866  1  0.93750000  0.06250000  0.62500000  1
  V  V3867  1  0.93750000  0.06250000  0.68750000  1
  V  V3868  1  0.93750000  0.06250000  0.75000000  1
  V  V3869  1  0.93750000  0.06250000  0.81250000  1
  V  V3870  1  0.93750000  0.06250000  0.87500000  1
  V  V3871  1  0.93750000  0.06250000  0.93750000  1
  V  V3872  1  0.93750000  0.12500000  0.00000000  1
  V  V3873  1  0.93750000  0.12500000  0.06250000  1
  V  V3874  1  0.93750000  0.12500000  0.12500000  1
  W  W3875  1  0.93750000  0.12500000  0.18750000  1
  V  V3876  1  0.93750000  0.12500000  0.25000000  1
  Cr  Cr3877  1  0.93750000  0.12500000  0.31250000  1
  V  V3878  1  0.93750000  0.12500000  0.37500000  1
  W  W3879  1  0.93750000  0.12500000  0.43750000  1
  V  V3880  1  0.93750000  0.12500000  0.50000000  1
  V  V3881  1  0.93750000  0.12500000  0.56250000  1
  V  V3882  1  0.93750000  0.12500000  0.62500000  1
  W  W3883  1  0.93750000  0.12500000  0.68750000  1
  V  V3884  1  0.93750000  0.12500000  0.75000000  1
  W  W3885  1  0.93750000  0.12500000  0.81250000  1
  V  V3886  1  0.93750000  0.12500000  0.87500000  1
  V  V3887  1  0.93750000  0.12500000  0.93750000  1
  V  V3888  1  0.93750000  0.18750000  0.00000000  1
  V  V3889  1  0.93750000  0.18750000  0.06250000  1
  V  V3890  1  0.93750000  0.18750000  0.12500000  1
  V  V3891  1  0.93750000  0.18750000  0.18750000  1
  V  V3892  1  0.93750000  0.18750000  0.25000000  1
  V  V3893  1  0.93750000  0.18750000  0.31250000  1
  V  V3894  1  0.93750000  0.18750000  0.37500000  1
  V  V3895  1  0.93750000  0.18750000  0.43750000  1
  V  V3896  1  0.93750000  0.18750000  0.50000000  1
  V  V3897  1  0.93750000  0.18750000  0.56250000  1
  V  V3898  1  0.93750000  0.18750000  0.62500000  1
  V  V3899  1  0.93750000  0.18750000  0.68750000  1
  V  V3900  1  0.93750000  0.18750000  0.75000000  1
  V  V3901  1  0.93750000  0.18750000  0.81250000  1
  V  V3902  1  0.93750000  0.18750000  0.87500000  1
  V  V3903  1  0.93750000  0.18750000  0.93750000  1
  V  V3904  1  0.93750000  0.25000000  0.00000000  1
  V  V3905  1  0.93750000  0.25000000  0.06250000  1
  V  V3906  1  0.93750000  0.25000000  0.12500000  1
  W  W3907  1  0.93750000  0.25000000  0.18750000  1
  V  V3908  1  0.93750000  0.25000000  0.25000000  1
  Cr  Cr3909  1  0.93750000  0.25000000  0.31250000  1
  V  V3910  1  0.93750000  0.25000000  0.37500000  1
  V  V3911  1  0.93750000  0.25000000  0.43750000  1
  V  V3912  1  0.93750000  0.25000000  0.50000000  1
  V  V3913  1  0.93750000  0.25000000  0.56250000  1
  V  V3914  1  0.93750000  0.25000000  0.62500000  1
  V  V3915  1  0.93750000  0.25000000  0.68750000  1
  V  V3916  1  0.93750000  0.25000000  0.75000000  1
  V  V3917  1  0.93750000  0.25000000  0.81250000  1
  V  V3918  1  0.93750000  0.25000000  0.87500000  1
  V  V3919  1  0.93750000  0.25000000  0.93750000  1
  V  V3920  1  0.93750000  0.31250000  0.00000000  1
  V  V3921  1  0.93750000  0.31250000  0.06250000  1
  V  V3922  1  0.93750000  0.31250000  0.12500000  1
  V  V3923  1  0.93750000  0.31250000  0.18750000  1
  V  V3924  1  0.93750000  0.31250000  0.25000000  1
  V  V3925  1  0.93750000  0.31250000  0.31250000  1
  W  W3926  1  0.93750000  0.31250000  0.37500000  1
  V  V3927  1  0.93750000  0.31250000  0.43750000  1
  V  V3928  1  0.93750000  0.31250000  0.50000000  1
  Cr  Cr3929  1  0.93750000  0.31250000  0.56250000  1
  V  V3930  1  0.93750000  0.31250000  0.62500000  1
  V  V3931  1  0.93750000  0.31250000  0.68750000  1
  V  V3932  1  0.93750000  0.31250000  0.75000000  1
  V  V3933  1  0.93750000  0.31250000  0.81250000  1
  V  V3934  1  0.93750000  0.31250000  0.87500000  1
  V  V3935  1  0.93750000  0.31250000  0.93750000  1
  V  V3936  1  0.93750000  0.37500000  0.00000000  1
  V  V3937  1  0.93750000  0.37500000  0.06250000  1
  V  V3938  1  0.93750000  0.37500000  0.12500000  1
  V  V3939  1  0.93750000  0.37500000  0.18750000  1
  V  V3940  1  0.93750000  0.37500000  0.25000000  1
  V  V3941  1  0.93750000  0.37500000  0.31250000  1
  V  V3942  1  0.93750000  0.37500000  0.37500000  1
  V  V3943  1  0.93750000  0.37500000  0.43750000  1
  V  V3944  1  0.93750000  0.37500000  0.50000000  1
  V  V3945  1  0.93750000  0.37500000  0.56250000  1
  V  V3946  1  0.93750000  0.37500000  0.62500000  1
  V  V3947  1  0.93750000  0.37500000  0.68750000  1
  V  V3948  1  0.93750000  0.37500000  0.75000000  1
  Cr  Cr3949  1  0.93750000  0.37500000  0.81250000  1
  V  V3950  1  0.93750000  0.37500000  0.87500000  1
  V  V3951  1  0.93750000  0.37500000  0.93750000  1
  V  V3952  1  0.93750000  0.43750000  0.00000000  1
  V  V3953  1  0.93750000  0.43750000  0.06250000  1
  W  W3954  1  0.93750000  0.43750000  0.12500000  1
  V  V3955  1  0.93750000  0.43750000  0.18750000  1
  V  V3956  1  0.93750000  0.43750000  0.25000000  1
  V  V3957  1  0.93750000  0.43750000  0.31250000  1
  V  V3958  1  0.93750000  0.43750000  0.37500000  1
  V  V3959  1  0.93750000  0.43750000  0.43750000  1
  V  V3960  1  0.93750000  0.43750000  0.50000000  1
  V  V3961  1  0.93750000  0.43750000  0.56250000  1
  V  V3962  1  0.93750000  0.43750000  0.62500000  1
  V  V3963  1  0.93750000  0.43750000  0.68750000  1
  V  V3964  1  0.93750000  0.43750000  0.75000000  1
  V  V3965  1  0.93750000  0.43750000  0.81250000  1
  V  V3966  1  0.93750000  0.43750000  0.87500000  1
  V  V3967  1  0.93750000  0.43750000  0.93750000  1
  V  V3968  1  0.93750000  0.50000000  0.00000000  1
  V  V3969  1  0.93750000  0.50000000  0.06250000  1
  V  V3970  1  0.93750000  0.50000000  0.12500000  1
  V  V3971  1  0.93750000  0.50000000  0.18750000  1
  V  V3972  1  0.93750000  0.50000000  0.25000000  1
  V  V3973  1  0.93750000  0.50000000  0.31250000  1
  V  V3974  1  0.93750000  0.50000000  0.37500000  1
  V  V3975  1  0.93750000  0.50000000  0.43750000  1
  V  V3976  1  0.93750000  0.50000000  0.50000000  1
  Cr  Cr3977  1  0.93750000  0.50000000  0.56250000  1
  V  V3978  1  0.93750000  0.50000000  0.62500000  1
  V  V3979  1  0.93750000  0.50000000  0.68750000  1
  V  V3980  1  0.93750000  0.50000000  0.75000000  1
  V  V3981  1  0.93750000  0.50000000  0.81250000  1
  V  V3982  1  0.93750000  0.50000000  0.87500000  1
  V  V3983  1  0.93750000  0.50000000  0.93750000  1
  V  V3984  1  0.93750000  0.56250000  0.00000000  1
  V  V3985  1  0.93750000  0.56250000  0.06250000  1
  V  V3986  1  0.93750000  0.56250000  0.12500000  1
  V  V3987  1  0.93750000  0.56250000  0.18750000  1
  V  V3988  1  0.93750000  0.56250000  0.25000000  1
  W  W3989  1  0.93750000  0.56250000  0.31250000  1
  W  W3990  1  0.93750000  0.56250000  0.37500000  1
  V  V3991  1  0.93750000  0.56250000  0.43750000  1
  V  V3992  1  0.93750000  0.56250000  0.50000000  1
  V  V3993  1  0.93750000  0.56250000  0.56250000  1
  V  V3994  1  0.93750000  0.56250000  0.62500000  1
  V  V3995  1  0.93750000  0.56250000  0.68750000  1
  Cr  Cr3996  1  0.93750000  0.56250000  0.75000000  1
  V  V3997  1  0.93750000  0.56250000  0.81250000  1
  V  V3998  1  0.93750000  0.56250000  0.87500000  1
  V  V3999  1  0.93750000  0.56250000  0.93750000  1
  W  W4000  1  0.93750000  0.62500000  0.00000000  1
  V  V4001  1  0.93750000  0.62500000  0.06250000  1
  V  V4002  1  0.93750000  0.62500000  0.12500000  1
  V  V4003  1  0.93750000  0.62500000  0.18750000  1
  V  V4004  1  0.93750000  0.62500000  0.25000000  1
  V  V4005  1  0.93750000  0.62500000  0.31250000  1
  V  V4006  1  0.93750000  0.62500000  0.37500000  1
  V  V4007  1  0.93750000  0.62500000  0.43750000  1
  V  V4008  1  0.93750000  0.62500000  0.50000000  1
  V  V4009  1  0.93750000  0.62500000  0.56250000  1
  V  V4010  1  0.93750000  0.62500000  0.62500000  1
  V  V4011  1  0.93750000  0.62500000  0.68750000  1
  V  V4012  1  0.93750000  0.62500000  0.75000000  1
  V  V4013  1  0.93750000  0.62500000  0.81250000  1
  V  V4014  1  0.93750000  0.62500000  0.87500000  1
  V  V4015  1  0.93750000  0.62500000  0.93750000  1
  V  V4016  1  0.93750000  0.68750000  0.00000000  1
  V  V4017  1  0.93750000  0.68750000  0.06250000  1
  V  V4018  1  0.93750000  0.68750000  0.12500000  1
  V  V4019  1  0.93750000  0.68750000  0.18750000  1
  V  V4020  1  0.93750000  0.68750000  0.25000000  1
  V  V4021  1  0.93750000  0.68750000  0.31250000  1
  V  V4022  1  0.93750000  0.68750000  0.37500000  1
  V  V4023  1  0.93750000  0.68750000  0.43750000  1
  V  V4024  1  0.93750000  0.68750000  0.50000000  1
  V  V4025  1  0.93750000  0.68750000  0.56250000  1
  V  V4026  1  0.93750000  0.68750000  0.62500000  1
  V  V4027  1  0.93750000  0.68750000  0.68750000  1
  W  W4028  1  0.93750000  0.68750000  0.75000000  1
  V  V4029  1  0.93750000  0.68750000  0.81250000  1
  V  V4030  1  0.93750000  0.68750000  0.87500000  1
  V  V4031  1  0.93750000  0.68750000  0.93750000  1
  V  V4032  1  0.93750000  0.75000000  0.00000000  1
  V  V4033  1  0.93750000  0.75000000  0.06250000  1
  V  V4034  1  0.93750000  0.75000000  0.12500000  1
  V  V4035  1  0.93750000  0.75000000  0.18750000  1
  V  V4036  1  0.93750000  0.75000000  0.25000000  1
  W  W4037  1  0.93750000  0.75000000  0.31250000  1
  V  V4038  1  0.93750000  0.75000000  0.37500000  1
  V  V4039  1  0.93750000  0.75000000  0.43750000  1
  V  V4040  1  0.93750000  0.75000000  0.50000000  1
  V  V4041  1  0.93750000  0.75000000  0.56250000  1
  V  V4042  1  0.93750000  0.75000000  0.62500000  1
  V  V4043  1  0.93750000  0.75000000  0.68750000  1
  V  V4044  1  0.93750000  0.75000000  0.75000000  1
  V  V4045  1  0.93750000  0.75000000  0.81250000  1
  V  V4046  1  0.93750000  0.75000000  0.87500000  1
  V  V4047  1  0.93750000  0.75000000  0.93750000  1
  V  V4048  1  0.93750000  0.81250000  0.00000000  1
  V  V4049  1  0.93750000  0.81250000  0.06250000  1
  V  V4050  1  0.93750000  0.81250000  0.12500000  1
  V  V4051  1  0.93750000  0.81250000  0.18750000  1
  V  V4052  1  0.93750000  0.81250000  0.25000000  1
  V  V4053  1  0.93750000  0.81250000  0.31250000  1
  V  V4054  1  0.93750000  0.81250000  0.37500000  1
  V  V4055  1  0.93750000  0.81250000  0.43750000  1
  V  V4056  1  0.93750000  0.81250000  0.50000000  1
  V  V4057  1  0.93750000  0.81250000  0.56250000  1
  V  V4058  1  0.93750000  0.81250000  0.62500000  1
  V  V4059  1  0.93750000  0.81250000  0.68750000  1
  V  V4060  1  0.93750000  0.81250000  0.75000000  1
  V  V4061  1  0.93750000  0.81250000  0.81250000  1
  V  V4062  1  0.93750000  0.81250000  0.87500000  1
  V  V4063  1  0.93750000  0.81250000  0.93750000  1
  W  W4064  1  0.93750000  0.87500000  0.00000000  1
  V  V4065  1  0.93750000  0.87500000  0.06250000  1
  V  V4066  1  0.93750000  0.87500000  0.12500000  1
  V  V4067  1  0.93750000  0.87500000  0.18750000  1
  V  V4068  1  0.93750000  0.87500000  0.25000000  1
  V  V4069  1  0.93750000  0.87500000  0.31250000  1
  V  V4070  1  0.93750000  0.87500000  0.37500000  1
  V  V4071  1  0.93750000  0.87500000  0.43750000  1
  V  V4072  1  0.93750000  0.87500000  0.50000000  1
  V  V4073  1  0.93750000  0.87500000  0.56250000  1
  V  V4074  1  0.93750000  0.87500000  0.62500000  1
  V  V4075  1  0.93750000  0.87500000  0.68750000  1
  V  V4076  1  0.93750000  0.87500000  0.75000000  1
  V  V4077  1  0.93750000  0.87500000  0.81250000  1
  V  V4078  1  0.93750000  0.87500000  0.87500000  1
  V  V4079  1  0.93750000  0.87500000  0.93750000  1
  V  V4080  1  0.93750000  0.93750000  0.00000000  1
  V  V4081  1  0.93750000  0.93750000  0.06250000  1
  V  V4082  1  0.93750000  0.93750000  0.12500000  1
  V  V4083  1  0.93750000  0.93750000  0.18750000  1
  V  V4084  1  0.93750000  0.93750000  0.25000000  1
  V  V4085  1  0.93750000  0.93750000  0.31250000  1
  W  W4086  1  0.93750000  0.93750000  0.37500000  1
  V  V4087  1  0.93750000  0.93750000  0.43750000  1
  V  V4088  1  0.93750000  0.93750000  0.50000000  1
  V  V4089  1  0.93750000  0.93750000  0.56250000  1
  V  V4090  1  0.93750000  0.93750000  0.62500000  1
  V  V4091  1  0.93750000  0.93750000  0.68750000  1
  V  V4092  1  0.93750000  0.93750000  0.75000000  1
  V  V4093  1  0.93750000  0.93750000  0.81250000  1
  W  W4094  1  0.93750000  0.93750000  0.87500000  1
  V  V4095  1  0.93750000  0.93750000  0.93750000  1
