# generated using pymatgen
data_Zr189Ti107V1056(CrW)188
_symmetry_space_group_name_H-M   'P 1'
_cell_length_a   31.28083764
_cell_length_b   31.28083764
_cell_length_c   31.28083764
_cell_angle_alpha   109.47122063
_cell_angle_beta   109.47122063
_cell_angle_gamma   109.47122063
_symmetry_Int_Tables_number   1
_chemical_formula_structural   Zr189Ti107V1056(CrW)188
_chemical_formula_sum   'Zr189 Ti107 V1056 Cr188 W188'
_cell_volume   23562.05859289
_cell_formula_units_Z   1
loop_
 _symmetry_equiv_pos_site_id
 _symmetry_equiv_pos_as_xyz
  1  'x, y, z'
loop_
 _atom_site_type_symbol
 _atom_site_label
 _atom_site_symmetry_multiplicity
 _atom_site_fract_x
 _atom_site_fract_y
 _atom_site_fract_z
 _atom_site_occupancy
  V  V0  1  0.00000000  0.00000000  0.00000000  1
  V  V1  1  0.00000000  0.00000000  0.08333333  1
  V  V2  1  0.00000000  0.00000000  0.16666667  1
  V  V3  1  0.00000000  0.00000000  0.25000000  1
  V  V4  1  0.00000000  0.00000000  0.33333333  1
  Cr  Cr5  1  0.00000000  0.00000000  0.41666667  1
  Zr  Zr6  1  0.00000000  0.00000000  0.50000000  1
  V  V7  1  0.00000000  0.00000000  0.58333333  1
  V  V8  1  0.00000000  0.00000000  0.66666667  1
  V  V9  1  0.00000000  0.00000000  0.75000000  1
  V  V10  1  0.00000000  0.00000000  0.83333333  1
  Zr  Zr11  1  0.00000000  0.00000000  0.91666667  1
  V  V12  1  0.00000000  0.08333333  0.00000000  1
  Zr  Zr13  1  0.00000000  0.08333333  0.08333333  1
  V  V14  1  0.00000000  0.08333333  0.16666667  1
  V  V15  1  0.00000000  0.08333333  0.25000000  1
  V  V16  1  0.00000000  0.08333333  0.33333333  1
  V  V17  1  0.00000000  0.08333333  0.41666667  1
  V  V18  1  0.00000000  0.08333333  0.50000000  1
  W  W19  1  0.00000000  0.08333333  0.58333333  1
  Zr  Zr20  1  0.00000000  0.08333333  0.66666667  1
  Zr  Zr21  1  0.00000000  0.08333333  0.75000000  1
  Cr  Cr22  1  0.00000000  0.08333333  0.83333333  1
  Zr  Zr23  1  0.00000000  0.08333333  0.91666667  1
  W  W24  1  0.00000000  0.16666667  0.00000000  1
  Zr  Zr25  1  0.00000000  0.16666667  0.08333333  1
  V  V26  1  0.00000000  0.16666667  0.16666667  1
  Cr  Cr27  1  0.00000000  0.16666667  0.25000000  1
  V  V28  1  0.00000000  0.16666667  0.33333333  1
  V  V29  1  0.00000000  0.16666667  0.41666667  1
  Cr  Cr30  1  0.00000000  0.16666667  0.50000000  1
  V  V31  1  0.00000000  0.16666667  0.58333333  1
  W  W32  1  0.00000000  0.16666667  0.66666667  1
  V  V33  1  0.00000000  0.16666667  0.75000000  1
  Ti  Ti34  1  0.00000000  0.16666667  0.83333333  1
  V  V35  1  0.00000000  0.16666667  0.91666667  1
  Cr  Cr36  1  0.00000000  0.25000000  0.00000000  1
  V  V37  1  0.00000000  0.25000000  0.08333333  1
  Ti  Ti38  1  0.00000000  0.25000000  0.16666667  1
  Zr  Zr39  1  0.00000000  0.25000000  0.25000000  1
  Zr  Zr40  1  0.00000000  0.25000000  0.33333333  1
  V  V41  1  0.00000000  0.25000000  0.41666667  1
  V  V42  1  0.00000000  0.25000000  0.50000000  1
  V  V43  1  0.00000000  0.25000000  0.58333333  1
  Zr  Zr44  1  0.00000000  0.25000000  0.66666667  1
  V  V45  1  0.00000000  0.25000000  0.75000000  1
  Cr  Cr46  1  0.00000000  0.25000000  0.83333333  1
  V  V47  1  0.00000000  0.25000000  0.91666667  1
  W  W48  1  0.00000000  0.33333333  0.00000000  1
  W  W49  1  0.00000000  0.33333333  0.08333333  1
  Cr  Cr50  1  0.00000000  0.33333333  0.16666667  1
  V  V51  1  0.00000000  0.33333333  0.25000000  1
  V  V52  1  0.00000000  0.33333333  0.33333333  1
  V  V53  1  0.00000000  0.33333333  0.41666667  1
  W  W54  1  0.00000000  0.33333333  0.50000000  1
  V  V55  1  0.00000000  0.33333333  0.58333333  1
  W  W56  1  0.00000000  0.33333333  0.66666667  1
  V  V57  1  0.00000000  0.33333333  0.75000000  1
  V  V58  1  0.00000000  0.33333333  0.83333333  1
  V  V59  1  0.00000000  0.33333333  0.91666667  1
  Zr  Zr60  1  0.00000000  0.41666667  0.00000000  1
  V  V61  1  0.00000000  0.41666667  0.08333333  1
  V  V62  1  0.00000000  0.41666667  0.16666667  1
  V  V63  1  0.00000000  0.41666667  0.25000000  1
  Zr  Zr64  1  0.00000000  0.41666667  0.33333333  1
  Zr  Zr65  1  0.00000000  0.41666667  0.41666667  1
  V  V66  1  0.00000000  0.41666667  0.50000000  1
  V  V67  1  0.00000000  0.41666667  0.58333333  1
  V  V68  1  0.00000000  0.41666667  0.66666667  1
  V  V69  1  0.00000000  0.41666667  0.75000000  1
  Cr  Cr70  1  0.00000000  0.41666667  0.83333333  1
  Ti  Ti71  1  0.00000000  0.41666667  0.91666667  1
  Zr  Zr72  1  0.00000000  0.50000000  0.00000000  1
  Zr  Zr73  1  0.00000000  0.50000000  0.08333333  1
  V  V74  1  0.00000000  0.50000000  0.16666667  1
  V  V75  1  0.00000000  0.50000000  0.25000000  1
  V  V76  1  0.00000000  0.50000000  0.33333333  1
  V  V77  1  0.00000000  0.50000000  0.41666667  1
  V  V78  1  0.00000000  0.50000000  0.50000000  1
  V  V79  1  0.00000000  0.50000000  0.58333333  1
  V  V80  1  0.00000000  0.50000000  0.66666667  1
  W  W81  1  0.00000000  0.50000000  0.75000000  1
  Ti  Ti82  1  0.00000000  0.50000000  0.83333333  1
  V  V83  1  0.00000000  0.50000000  0.91666667  1
  V  V84  1  0.00000000  0.58333333  0.00000000  1
  V  V85  1  0.00000000  0.58333333  0.08333333  1
  Zr  Zr86  1  0.00000000  0.58333333  0.16666667  1
  V  V87  1  0.00000000  0.58333333  0.25000000  1
  Zr  Zr88  1  0.00000000  0.58333333  0.33333333  1
  V  V89  1  0.00000000  0.58333333  0.41666667  1
  V  V90  1  0.00000000  0.58333333  0.50000000  1
  V  V91  1  0.00000000  0.58333333  0.58333333  1
  V  V92  1  0.00000000  0.58333333  0.66666667  1
  V  V93  1  0.00000000  0.58333333  0.75000000  1
  Zr  Zr94  1  0.00000000  0.58333333  0.83333333  1
  Zr  Zr95  1  0.00000000  0.58333333  0.91666667  1
  Zr  Zr96  1  1.00000000  0.66666667  1.00000000  1
  V  V97  1  1.00000000  0.66666667  0.08333333  1
  Zr  Zr98  1  1.00000000  0.66666667  0.16666667  1
  V  V99  1  1.00000000  0.66666667  0.25000000  1
  V  V100  1  1.00000000  0.66666667  0.33333333  1
  W  W101  1  1.00000000  0.66666667  0.41666667  1
  V  V102  1  1.00000000  0.66666667  0.50000000  1
  V  V103  1  1.00000000  0.66666667  0.58333333  1
  W  W104  1  1.00000000  0.66666667  0.66666667  1
  Cr  Cr105  1  1.00000000  0.66666667  0.75000000  1
  W  W106  1  1.00000000  0.66666667  0.83333333  1
  Zr  Zr107  1  1.00000000  0.66666667  0.91666667  1
  V  V108  1  1.00000000  0.75000000  1.00000000  1
  Cr  Cr109  1  1.00000000  0.75000000  0.08333333  1
  Cr  Cr110  1  1.00000000  0.75000000  0.16666667  1
  Cr  Cr111  1  1.00000000  0.75000000  0.25000000  1
  V  V112  1  1.00000000  0.75000000  0.33333333  1
  V  V113  1  1.00000000  0.75000000  0.41666667  1
  V  V114  1  1.00000000  0.75000000  0.50000000  1
  V  V115  1  1.00000000  0.75000000  0.58333333  1
  V  V116  1  1.00000000  0.75000000  0.66666667  1
  Ti  Ti117  1  1.00000000  0.75000000  0.75000000  1
  V  V118  1  1.00000000  0.75000000  0.83333333  1
  V  V119  1  1.00000000  0.75000000  0.91666667  1
  V  V120  1  1.00000000  0.83333333  1.00000000  1
  Zr  Zr121  1  1.00000000  0.83333333  0.08333333  1
  V  V122  1  1.00000000  0.83333333  0.16666667  1
  Ti  Ti123  1  1.00000000  0.83333333  0.25000000  1
  V  V124  1  1.00000000  0.83333333  0.33333333  1
  Cr  Cr125  1  1.00000000  0.83333333  0.41666667  1
  V  V126  1  1.00000000  0.83333333  0.50000000  1
  Cr  Cr127  1  1.00000000  0.83333333  0.58333333  1
  V  V128  1  1.00000000  0.83333333  0.66666667  1
  V  V129  1  1.00000000  0.83333333  0.75000000  1
  Cr  Cr130  1  1.00000000  0.83333333  0.83333333  1
  Ti  Ti131  1  1.00000000  0.83333333  0.91666667  1
  Cr  Cr132  1  1.00000000  0.91666667  1.00000000  1
  W  W133  1  1.00000000  0.91666667  0.08333333  1
  V  V134  1  1.00000000  0.91666667  0.16666667  1
  V  V135  1  1.00000000  0.91666667  0.25000000  1
  V  V136  1  1.00000000  0.91666667  0.33333333  1
  V  V137  1  1.00000000  0.91666667  0.41666667  1
  V  V138  1  1.00000000  0.91666667  0.50000000  1
  V  V139  1  1.00000000  0.91666667  0.58333333  1
  V  V140  1  1.00000000  0.91666667  0.66666667  1
  Zr  Zr141  1  1.00000000  0.91666667  0.75000000  1
  V  V142  1  1.00000000  0.91666667  0.83333333  1
  V  V143  1  1.00000000  0.91666667  0.91666667  1
  Cr  Cr144  1  0.08333333  0.00000000  0.00000000  1
  V  V145  1  0.08333333  0.00000000  0.08333333  1
  V  V146  1  0.08333333  0.00000000  0.16666667  1
  Cr  Cr147  1  0.08333333  0.00000000  0.25000000  1
  V  V148  1  0.08333333  0.00000000  0.33333333  1
  V  V149  1  0.08333333  0.00000000  0.41666667  1
  Cr  Cr150  1  0.08333333  0.00000000  0.50000000  1
  V  V151  1  0.08333333  0.00000000  0.58333333  1
  V  V152  1  0.08333333  0.00000000  0.66666667  1
  V  V153  1  0.08333333  0.00000000  0.75000000  1
  V  V154  1  0.08333333  0.00000000  0.83333333  1
  V  V155  1  0.08333333  0.00000000  0.91666667  1
  V  V156  1  0.08333333  0.08333333  0.00000000  1
  V  V157  1  0.08333333  0.08333333  0.08333333  1
  Cr  Cr158  1  0.08333333  0.08333333  0.16666667  1
  V  V159  1  0.08333333  0.08333333  0.25000000  1
  V  V160  1  0.08333333  0.08333333  0.33333333  1
  V  V161  1  0.08333333  0.08333333  0.41666667  1
  Zr  Zr162  1  0.08333333  0.08333333  0.50000000  1
  W  W163  1  0.08333333  0.08333333  0.58333333  1
  V  V164  1  0.08333333  0.08333333  0.66666667  1
  V  V165  1  0.08333333  0.08333333  0.75000000  1
  V  V166  1  0.08333333  0.08333333  0.83333333  1
  V  V167  1  0.08333333  0.08333333  0.91666667  1
  Zr  Zr168  1  0.08333333  0.16666667  0.00000000  1
  Cr  Cr169  1  0.08333333  0.16666667  0.08333333  1
  V  V170  1  0.08333333  0.16666667  0.16666667  1
  V  V171  1  0.08333333  0.16666667  0.25000000  1
  Ti  Ti172  1  0.08333333  0.16666667  0.33333333  1
  V  V173  1  0.08333333  0.16666667  0.41666667  1
  W  W174  1  0.08333333  0.16666667  0.50000000  1
  V  V175  1  0.08333333  0.16666667  0.58333333  1
  V  V176  1  0.08333333  0.16666667  0.66666667  1
  V  V177  1  0.08333333  0.16666667  0.75000000  1
  V  V178  1  0.08333333  0.16666667  0.83333333  1
  V  V179  1  0.08333333  0.16666667  0.91666667  1
  Zr  Zr180  1  0.08333333  0.25000000  0.00000000  1
  V  V181  1  0.08333333  0.25000000  0.08333333  1
  Ti  Ti182  1  0.08333333  0.25000000  0.16666667  1
  V  V183  1  0.08333333  0.25000000  0.25000000  1
  V  V184  1  0.08333333  0.25000000  0.33333333  1
  V  V185  1  0.08333333  0.25000000  0.41666667  1
  V  V186  1  0.08333333  0.25000000  0.50000000  1
  V  V187  1  0.08333333  0.25000000  0.58333333  1
  V  V188  1  0.08333333  0.25000000  0.66666667  1
  W  W189  1  0.08333333  0.25000000  0.75000000  1
  V  V190  1  0.08333333  0.25000000  0.83333333  1
  Zr  Zr191  1  0.08333333  0.25000000  0.91666667  1
  V  V192  1  0.08333333  0.33333333  0.00000000  1
  Cr  Cr193  1  0.08333333  0.33333333  0.08333333  1
  W  W194  1  0.08333333  0.33333333  0.16666667  1
  Ti  Ti195  1  0.08333333  0.33333333  0.25000000  1
  Zr  Zr196  1  0.08333333  0.33333333  0.33333333  1
  V  V197  1  0.08333333  0.33333333  0.41666667  1
  V  V198  1  0.08333333  0.33333333  0.50000000  1
  V  V199  1  0.08333333  0.33333333  0.58333333  1
  V  V200  1  0.08333333  0.33333333  0.66666667  1
  V  V201  1  0.08333333  0.33333333  0.75000000  1
  Zr  Zr202  1  0.08333333  0.33333333  0.83333333  1
  V  V203  1  0.08333333  0.33333333  0.91666667  1
  V  V204  1  0.08333333  0.41666667  0.00000000  1
  V  V205  1  0.08333333  0.41666667  0.08333333  1
  Cr  Cr206  1  0.08333333  0.41666667  0.16666667  1
  V  V207  1  0.08333333  0.41666667  0.25000000  1
  W  W208  1  0.08333333  0.41666667  0.33333333  1
  W  W209  1  0.08333333  0.41666667  0.41666667  1
  V  V210  1  0.08333333  0.41666667  0.50000000  1
  V  V211  1  0.08333333  0.41666667  0.58333333  1
  V  V212  1  0.08333333  0.41666667  0.66666667  1
  V  V213  1  0.08333333  0.41666667  0.75000000  1
  Zr  Zr214  1  0.08333333  0.41666667  0.83333333  1
  V  V215  1  0.08333333  0.41666667  0.91666667  1
  V  V216  1  0.08333333  0.50000000  0.00000000  1
  V  V217  1  0.08333333  0.50000000  0.08333333  1
  V  V218  1  0.08333333  0.50000000  0.16666667  1
  V  V219  1  0.08333333  0.50000000  0.25000000  1
  V  V220  1  0.08333333  0.50000000  0.33333333  1
  V  V221  1  0.08333333  0.50000000  0.41666667  1
  W  W222  1  0.08333333  0.50000000  0.50000000  1
  W  W223  1  0.08333333  0.50000000  0.58333333  1
  V  V224  1  0.08333333  0.50000000  0.66666667  1
  V  V225  1  0.08333333  0.50000000  0.75000000  1
  Zr  Zr226  1  0.08333333  0.50000000  0.83333333  1
  W  W227  1  0.08333333  0.50000000  0.91666667  1
  V  V228  1  0.08333333  0.58333333  0.00000000  1
  V  V229  1  0.08333333  0.58333333  0.08333333  1
  Zr  Zr230  1  0.08333333  0.58333333  0.16666667  1
  V  V231  1  0.08333333  0.58333333  0.25000000  1
  V  V232  1  0.08333333  0.58333333  0.33333333  1
  V  V233  1  0.08333333  0.58333333  0.41666667  1
  Ti  Ti234  1  0.08333333  0.58333333  0.50000000  1
  V  V235  1  0.08333333  0.58333333  0.58333333  1
  Cr  Cr236  1  0.08333333  0.58333333  0.66666667  1
  Zr  Zr237  1  0.08333333  0.58333333  0.75000000  1
  Zr  Zr238  1  0.08333333  0.58333333  0.83333333  1
  Ti  Ti239  1  0.08333333  0.58333333  0.91666667  1
  W  W240  1  0.08333333  0.66666667  1.00000000  1
  V  V241  1  0.08333333  0.66666667  0.08333333  1
  V  V242  1  0.08333333  0.66666667  0.16666667  1
  V  V243  1  0.08333333  0.66666667  0.25000000  1
  V  V244  1  0.08333333  0.66666667  0.33333333  1
  V  V245  1  0.08333333  0.66666667  0.41666667  1
  V  V246  1  0.08333333  0.66666667  0.50000000  1
  Cr  Cr247  1  0.08333333  0.66666667  0.58333333  1
  Ti  Ti248  1  0.08333333  0.66666667  0.66666667  1
  Cr  Cr249  1  0.08333333  0.66666667  0.75000000  1
  V  V250  1  0.08333333  0.66666667  0.83333333  1
  V  V251  1  0.08333333  0.66666667  0.91666667  1
  V  V252  1  0.08333333  0.75000000  1.00000000  1
  V  V253  1  0.08333333  0.75000000  0.08333333  1
  V  V254  1  0.08333333  0.75000000  0.16666667  1
  V  V255  1  0.08333333  0.75000000  0.25000000  1
  Cr  Cr256  1  0.08333333  0.75000000  0.33333333  1
  V  V257  1  0.08333333  0.75000000  0.41666667  1
  W  W258  1  0.08333333  0.75000000  0.50000000  1
  V  V259  1  0.08333333  0.75000000  0.58333333  1
  V  V260  1  0.08333333  0.75000000  0.66666667  1
  V  V261  1  0.08333333  0.75000000  0.75000000  1
  V  V262  1  0.08333333  0.75000000  0.83333333  1
  V  V263  1  0.08333333  0.75000000  0.91666667  1
  V  V264  1  0.08333333  0.83333333  1.00000000  1
  V  V265  1  0.08333333  0.83333333  0.08333333  1
  Ti  Ti266  1  0.08333333  0.83333333  0.16666667  1
  V  V267  1  0.08333333  0.83333333  0.25000000  1
  Zr  Zr268  1  0.08333333  0.83333333  0.33333333  1
  V  V269  1  0.08333333  0.83333333  0.41666667  1
  W  W270  1  0.08333333  0.83333333  0.50000000  1
  V  V271  1  0.08333333  0.83333333  0.58333333  1
  V  V272  1  0.08333333  0.83333333  0.66666667  1
  V  V273  1  0.08333333  0.83333333  0.75000000  1
  V  V274  1  0.08333333  0.83333333  0.83333333  1
  W  W275  1  0.08333333  0.83333333  0.91666667  1
  Zr  Zr276  1  0.08333333  0.91666667  1.00000000  1
  V  V277  1  0.08333333  0.91666667  0.08333333  1
  V  V278  1  0.08333333  0.91666667  0.16666667  1
  V  V279  1  0.08333333  0.91666667  0.25000000  1
  V  V280  1  0.08333333  0.91666667  0.33333333  1
  V  V281  1  0.08333333  0.91666667  0.41666667  1
  V  V282  1  0.08333333  0.91666667  0.50000000  1
  V  V283  1  0.08333333  0.91666667  0.58333333  1
  W  W284  1  0.08333333  0.91666667  0.66666667  1
  W  W285  1  0.08333333  0.91666667  0.75000000  1
  V  V286  1  0.08333333  0.91666667  0.83333333  1
  V  V287  1  0.08333333  0.91666667  0.91666667  1
  W  W288  1  0.16666667  0.00000000  0.00000000  1
  V  V289  1  0.16666667  0.00000000  0.08333333  1
  V  V290  1  0.16666667  0.00000000  0.16666667  1
  V  V291  1  0.16666667  0.00000000  0.25000000  1
  W  W292  1  0.16666667  0.00000000  0.33333333  1
  Ti  Ti293  1  0.16666667  0.00000000  0.41666667  1
  Cr  Cr294  1  0.16666667  0.00000000  0.50000000  1
  V  V295  1  0.16666667  0.00000000  0.58333333  1
  W  W296  1  0.16666667  0.00000000  0.66666667  1
  V  V297  1  0.16666667  0.00000000  0.75000000  1
  Cr  Cr298  1  0.16666667  0.00000000  0.83333333  1
  Ti  Ti299  1  0.16666667  0.00000000  0.91666667  1
  V  V300  1  0.16666667  0.08333333  0.00000000  1
  Zr  Zr301  1  0.16666667  0.08333333  0.08333333  1
  V  V302  1  0.16666667  0.08333333  0.16666667  1
  Ti  Ti303  1  0.16666667  0.08333333  0.25000000  1
  Cr  Cr304  1  0.16666667  0.08333333  0.33333333  1
  V  V305  1  0.16666667  0.08333333  0.41666667  1
  Cr  Cr306  1  0.16666667  0.08333333  0.50000000  1
  V  V307  1  0.16666667  0.08333333  0.58333333  1
  V  V308  1  0.16666667  0.08333333  0.66666667  1
  Cr  Cr309  1  0.16666667  0.08333333  0.75000000  1
  V  V310  1  0.16666667  0.08333333  0.83333333  1
  V  V311  1  0.16666667  0.08333333  0.91666667  1
  Cr  Cr312  1  0.16666667  0.16666667  0.00000000  1
  V  V313  1  0.16666667  0.16666667  0.08333333  1
  Cr  Cr314  1  0.16666667  0.16666667  0.16666667  1
  Cr  Cr315  1  0.16666667  0.16666667  0.25000000  1
  V  V316  1  0.16666667  0.16666667  0.33333333  1
  Cr  Cr317  1  0.16666667  0.16666667  0.41666667  1
  V  V318  1  0.16666667  0.16666667  0.50000000  1
  V  V319  1  0.16666667  0.16666667  0.58333333  1
  V  V320  1  0.16666667  0.16666667  0.66666667  1
  V  V321  1  0.16666667  0.16666667  0.75000000  1
  V  V322  1  0.16666667  0.16666667  0.83333333  1
  V  V323  1  0.16666667  0.16666667  0.91666667  1
  V  V324  1  0.16666667  0.25000000  0.00000000  1
  W  W325  1  0.16666667  0.25000000  0.08333333  1
  W  W326  1  0.16666667  0.25000000  0.16666667  1
  W  W327  1  0.16666667  0.25000000  0.25000000  1
  Cr  Cr328  1  0.16666667  0.25000000  0.33333333  1
  V  V329  1  0.16666667  0.25000000  0.41666667  1
  V  V330  1  0.16666667  0.25000000  0.50000000  1
  Cr  Cr331  1  0.16666667  0.25000000  0.58333333  1
  V  V332  1  0.16666667  0.25000000  0.66666667  1
  V  V333  1  0.16666667  0.25000000  0.75000000  1
  V  V334  1  0.16666667  0.25000000  0.83333333  1
  W  W335  1  0.16666667  0.25000000  0.91666667  1
  V  V336  1  0.16666667  0.33333333  1.00000000  1
  V  V337  1  0.16666667  0.33333333  0.08333333  1
  V  V338  1  0.16666667  0.33333333  0.16666667  1
  Ti  Ti339  1  0.16666667  0.33333333  0.25000000  1
  V  V340  1  0.16666667  0.33333333  0.33333333  1
  V  V341  1  0.16666667  0.33333333  0.41666667  1
  W  W342  1  0.16666667  0.33333333  0.50000000  1
  W  W343  1  0.16666667  0.33333333  0.58333333  1
  V  V344  1  0.16666667  0.33333333  0.66666667  1
  W  W345  1  0.16666667  0.33333333  0.75000000  1
  Zr  Zr346  1  0.16666667  0.33333333  0.83333333  1
  Cr  Cr347  1  0.16666667  0.33333333  0.91666667  1
  V  V348  1  0.16666667  0.41666667  0.00000000  1
  V  V349  1  0.16666667  0.41666667  0.08333333  1
  Cr  Cr350  1  0.16666667  0.41666667  0.16666667  1
  V  V351  1  0.16666667  0.41666667  0.25000000  1
  W  W352  1  0.16666667  0.41666667  0.33333333  1
  V  V353  1  0.16666667  0.41666667  0.41666667  1
  V  V354  1  0.16666667  0.41666667  0.50000000  1
  V  V355  1  0.16666667  0.41666667  0.58333333  1
  V  V356  1  0.16666667  0.41666667  0.66666667  1
  Zr  Zr357  1  0.16666667  0.41666667  0.75000000  1
  V  V358  1  0.16666667  0.41666667  0.83333333  1
  V  V359  1  0.16666667  0.41666667  0.91666667  1
  V  V360  1  0.16666667  0.50000000  0.00000000  1
  V  V361  1  0.16666667  0.50000000  0.08333333  1
  V  V362  1  0.16666667  0.50000000  0.16666667  1
  V  V363  1  0.16666667  0.50000000  0.25000000  1
  Cr  Cr364  1  0.16666667  0.50000000  0.33333333  1
  V  V365  1  0.16666667  0.50000000  0.41666667  1
  V  V366  1  0.16666667  0.50000000  0.50000000  1
  V  V367  1  0.16666667  0.50000000  0.58333333  1
  V  V368  1  0.16666667  0.50000000  0.66666667  1
  Zr  Zr369  1  0.16666667  0.50000000  0.75000000  1
  V  V370  1  0.16666667  0.50000000  0.83333333  1
  V  V371  1  0.16666667  0.50000000  0.91666667  1
  V  V372  1  0.16666667  0.58333333  0.00000000  1
  V  V373  1  0.16666667  0.58333333  0.08333333  1
  W  W374  1  0.16666667  0.58333333  0.16666667  1
  V  V375  1  0.16666667  0.58333333  0.25000000  1
  W  W376  1  0.16666667  0.58333333  0.33333333  1
  V  V377  1  0.16666667  0.58333333  0.41666667  1
  Cr  Cr378  1  0.16666667  0.58333333  0.50000000  1
  Zr  Zr379  1  0.16666667  0.58333333  0.58333333  1
  V  V380  1  0.16666667  0.58333333  0.66666667  1
  V  V381  1  0.16666667  0.58333333  0.75000000  1
  Ti  Ti382  1  0.16666667  0.58333333  0.83333333  1
  Zr  Zr383  1  0.16666667  0.58333333  0.91666667  1
  Zr  Zr384  1  0.16666667  0.66666667  1.00000000  1
  V  V385  1  0.16666667  0.66666667  0.08333333  1
  V  V386  1  0.16666667  0.66666667  0.16666667  1
  V  V387  1  0.16666667  0.66666667  0.25000000  1
  V  V388  1  0.16666667  0.66666667  0.33333333  1
  Ti  Ti389  1  0.16666667  0.66666667  0.41666667  1
  Ti  Ti390  1  0.16666667  0.66666667  0.50000000  1
  V  V391  1  0.16666667  0.66666667  0.58333333  1
  V  V392  1  0.16666667  0.66666667  0.66666667  1
  V  V393  1  0.16666667  0.66666667  0.75000000  1
  V  V394  1  0.16666667  0.66666667  0.83333333  1
  Ti  Ti395  1  0.16666667  0.66666667  0.91666667  1
  V  V396  1  0.16666667  0.75000000  1.00000000  1
  V  V397  1  0.16666667  0.75000000  0.08333333  1
  V  V398  1  0.16666667  0.75000000  0.16666667  1
  Cr  Cr399  1  0.16666667  0.75000000  0.25000000  1
  V  V400  1  0.16666667  0.75000000  0.33333333  1
  V  V401  1  0.16666667  0.75000000  0.41666667  1
  V  V402  1  0.16666667  0.75000000  0.50000000  1
  V  V403  1  0.16666667  0.75000000  0.58333333  1
  V  V404  1  0.16666667  0.75000000  0.66666667  1
  V  V405  1  0.16666667  0.75000000  0.75000000  1
  V  V406  1  0.16666667  0.75000000  0.83333333  1
  V  V407  1  0.16666667  0.75000000  0.91666667  1
  Zr  Zr408  1  0.16666667  0.83333333  0.00000000  1
  W  W409  1  0.16666667  0.83333333  0.08333333  1
  V  V410  1  0.16666667  0.83333333  0.16666667  1
  V  V411  1  0.16666667  0.83333333  0.25000000  1
  V  V412  1  0.16666667  0.83333333  0.33333333  1
  V  V413  1  0.16666667  0.83333333  0.41666667  1
  V  V414  1  0.16666667  0.83333333  0.50000000  1
  W  W415  1  0.16666667  0.83333333  0.58333333  1
  Ti  Ti416  1  0.16666667  0.83333333  0.66666667  1
  Cr  Cr417  1  0.16666667  0.83333333  0.75000000  1
  Zr  Zr418  1  0.16666667  0.83333333  0.83333333  1
  V  V419  1  0.16666667  0.83333333  0.91666667  1
  Zr  Zr420  1  0.16666667  0.91666667  1.00000000  1
  V  V421  1  0.16666667  0.91666667  0.08333333  1
  V  V422  1  0.16666667  0.91666667  0.16666667  1
  Cr  Cr423  1  0.16666667  0.91666667  0.25000000  1
  Cr  Cr424  1  0.16666667  0.91666667  0.33333333  1
  V  V425  1  0.16666667  0.91666667  0.41666667  1
  V  V426  1  0.16666667  0.91666667  0.50000000  1
  V  V427  1  0.16666667  0.91666667  0.58333333  1
  V  V428  1  0.16666667  0.91666667  0.66666667  1
  V  V429  1  0.16666667  0.91666667  0.75000000  1
  Ti  Ti430  1  0.16666667  0.91666667  0.83333333  1
  Cr  Cr431  1  0.16666667  0.91666667  0.91666667  1
  Ti  Ti432  1  0.25000000  0.00000000  0.00000000  1
  V  V433  1  0.25000000  0.00000000  0.08333333  1
  V  V434  1  0.25000000  0.00000000  0.16666667  1
  Ti  Ti435  1  0.25000000  0.00000000  0.25000000  1
  V  V436  1  0.25000000  0.00000000  0.33333333  1
  Zr  Zr437  1  0.25000000  0.00000000  0.41666667  1
  V  V438  1  0.25000000  0.00000000  0.50000000  1
  V  V439  1  0.25000000  0.00000000  0.58333333  1
  V  V440  1  0.25000000  0.00000000  0.66666667  1
  W  W441  1  0.25000000  0.00000000  0.75000000  1
  Ti  Ti442  1  0.25000000  0.00000000  0.83333333  1
  V  V443  1  0.25000000  0.00000000  0.91666667  1
  Zr  Zr444  1  0.25000000  0.08333333  0.00000000  1
  Zr  Zr445  1  0.25000000  0.08333333  0.08333333  1
  V  V446  1  0.25000000  0.08333333  0.16666667  1
  V  V447  1  0.25000000  0.08333333  0.25000000  1
  Zr  Zr448  1  0.25000000  0.08333333  0.33333333  1
  Cr  Cr449  1  0.25000000  0.08333333  0.41666667  1
  V  V450  1  0.25000000  0.08333333  0.50000000  1
  V  V451  1  0.25000000  0.08333333  0.58333333  1
  Cr  Cr452  1  0.25000000  0.08333333  0.66666667  1
  V  V453  1  0.25000000  0.08333333  0.75000000  1
  V  V454  1  0.25000000  0.08333333  0.83333333  1
  Cr  Cr455  1  0.25000000  0.08333333  0.91666667  1
  V  V456  1  0.25000000  0.16666667  0.00000000  1
  V  V457  1  0.25000000  0.16666667  0.08333333  1
  V  V458  1  0.25000000  0.16666667  0.16666667  1
  V  V459  1  0.25000000  0.16666667  0.25000000  1
  V  V460  1  0.25000000  0.16666667  0.33333333  1
  W  W461  1  0.25000000  0.16666667  0.41666667  1
  Cr  Cr462  1  0.25000000  0.16666667  0.50000000  1
  W  W463  1  0.25000000  0.16666667  0.58333333  1
  V  V464  1  0.25000000  0.16666667  0.66666667  1
  V  V465  1  0.25000000  0.16666667  0.75000000  1
  V  V466  1  0.25000000  0.16666667  0.83333333  1
  Zr  Zr467  1  0.25000000  0.16666667  0.91666667  1
  V  V468  1  0.25000000  0.25000000  0.00000000  1
  Cr  Cr469  1  0.25000000  0.25000000  0.08333333  1
  V  V470  1  0.25000000  0.25000000  0.16666667  1
  V  V471  1  0.25000000  0.25000000  0.25000000  1
  Cr  Cr472  1  0.25000000  0.25000000  0.33333333  1
  V  V473  1  0.25000000  0.25000000  0.41666667  1
  V  V474  1  0.25000000  0.25000000  0.50000000  1
  V  V475  1  0.25000000  0.25000000  0.58333333  1
  V  V476  1  0.25000000  0.25000000  0.66666667  1
  V  V477  1  0.25000000  0.25000000  0.75000000  1
  Cr  Cr478  1  0.25000000  0.25000000  0.83333333  1
  V  V479  1  0.25000000  0.25000000  0.91666667  1
  Zr  Zr480  1  0.25000000  0.33333333  0.00000000  1
  V  V481  1  0.25000000  0.33333333  0.08333333  1
  V  V482  1  0.25000000  0.33333333  0.16666667  1
  V  V483  1  0.25000000  0.33333333  0.25000000  1
  V  V484  1  0.25000000  0.33333333  0.33333333  1
  V  V485  1  0.25000000  0.33333333  0.41666667  1
  W  W486  1  0.25000000  0.33333333  0.50000000  1
  V  V487  1  0.25000000  0.33333333  0.58333333  1
  W  W488  1  0.25000000  0.33333333  0.66666667  1
  V  V489  1  0.25000000  0.33333333  0.75000000  1
  V  V490  1  0.25000000  0.33333333  0.83333333  1
  V  V491  1  0.25000000  0.33333333  0.91666667  1
  V  V492  1  0.25000000  0.41666667  0.00000000  1
  Cr  Cr493  1  0.25000000  0.41666667  0.08333333  1
  V  V494  1  0.25000000  0.41666667  0.16666667  1
  V  V495  1  0.25000000  0.41666667  0.25000000  1
  V  V496  1  0.25000000  0.41666667  0.33333333  1
  V  V497  1  0.25000000  0.41666667  0.41666667  1
  Zr  Zr498  1  0.25000000  0.41666667  0.50000000  1
  V  V499  1  0.25000000  0.41666667  0.58333333  1
  V  V500  1  0.25000000  0.41666667  0.66666667  1
  V  V501  1  0.25000000  0.41666667  0.75000000  1
  Cr  Cr502  1  0.25000000  0.41666667  0.83333333  1
  V  V503  1  0.25000000  0.41666667  0.91666667  1
  V  V504  1  0.25000000  0.50000000  0.00000000  1
  Zr  Zr505  1  0.25000000  0.50000000  0.08333333  1
  V  V506  1  0.25000000  0.50000000  0.16666667  1
  V  V507  1  0.25000000  0.50000000  0.25000000  1
  W  W508  1  0.25000000  0.50000000  0.33333333  1
  Cr  Cr509  1  0.25000000  0.50000000  0.41666667  1
  Zr  Zr510  1  0.25000000  0.50000000  0.50000000  1
  V  V511  1  0.25000000  0.50000000  0.58333333  1
  V  V512  1  0.25000000  0.50000000  0.66666667  1
  V  V513  1  0.25000000  0.50000000  0.75000000  1
  V  V514  1  0.25000000  0.50000000  0.83333333  1
  W  W515  1  0.25000000  0.50000000  0.91666667  1
  V  V516  1  0.25000000  0.58333333  1.00000000  1
  V  V517  1  0.25000000  0.58333333  0.08333333  1
  V  V518  1  0.25000000  0.58333333  0.16666667  1
  V  V519  1  0.25000000  0.58333333  0.25000000  1
  V  V520  1  0.25000000  0.58333333  0.33333333  1
  Zr  Zr521  1  0.25000000  0.58333333  0.41666667  1
  V  V522  1  0.25000000  0.58333333  0.50000000  1
  Cr  Cr523  1  0.25000000  0.58333333  0.58333333  1
  Zr  Zr524  1  0.25000000  0.58333333  0.66666667  1
  V  V525  1  0.25000000  0.58333333  0.75000000  1
  V  V526  1  0.25000000  0.58333333  0.83333333  1
  W  W527  1  0.25000000  0.58333333  0.91666667  1
  V  V528  1  0.25000000  0.66666667  1.00000000  1
  V  V529  1  0.25000000  0.66666667  0.08333333  1
  W  W530  1  0.25000000  0.66666667  0.16666667  1
  V  V531  1  0.25000000  0.66666667  0.25000000  1
  V  V532  1  0.25000000  0.66666667  0.33333333  1
  Ti  Ti533  1  0.25000000  0.66666667  0.41666667  1
  V  V534  1  0.25000000  0.66666667  0.50000000  1
  W  W535  1  0.25000000  0.66666667  0.58333333  1
  W  W536  1  0.25000000  0.66666667  0.66666667  1
  Cr  Cr537  1  0.25000000  0.66666667  0.75000000  1
  Zr  Zr538  1  0.25000000  0.66666667  0.83333333  1
  W  W539  1  0.25000000  0.66666667  0.91666667  1
  V  V540  1  0.25000000  0.75000000  1.00000000  1
  Cr  Cr541  1  0.25000000  0.75000000  0.08333333  1
  V  V542  1  0.25000000  0.75000000  0.16666667  1
  V  V543  1  0.25000000  0.75000000  0.25000000  1
  W  W544  1  0.25000000  0.75000000  0.33333333  1
  V  V545  1  0.25000000  0.75000000  0.41666667  1
  V  V546  1  0.25000000  0.75000000  0.50000000  1
  V  V547  1  0.25000000  0.75000000  0.58333333  1
  V  V548  1  0.25000000  0.75000000  0.66666667  1
  Zr  Zr549  1  0.25000000  0.75000000  0.75000000  1
  V  V550  1  0.25000000  0.75000000  0.83333333  1
  V  V551  1  0.25000000  0.75000000  0.91666667  1
  V  V552  1  0.25000000  0.83333333  0.00000000  1
  W  W553  1  0.25000000  0.83333333  0.08333333  1
  Cr  Cr554  1  0.25000000  0.83333333  0.16666667  1
  Cr  Cr555  1  0.25000000  0.83333333  0.25000000  1
  V  V556  1  0.25000000  0.83333333  0.33333333  1
  W  W557  1  0.25000000  0.83333333  0.41666667  1
  V  V558  1  0.25000000  0.83333333  0.50000000  1
  V  V559  1  0.25000000  0.83333333  0.58333333  1
  W  W560  1  0.25000000  0.83333333  0.66666667  1
  V  V561  1  0.25000000  0.83333333  0.75000000  1
  V  V562  1  0.25000000  0.83333333  0.83333333  1
  Zr  Zr563  1  0.25000000  0.83333333  0.91666667  1
  V  V564  1  0.25000000  0.91666667  1.00000000  1
  V  V565  1  0.25000000  0.91666667  0.08333333  1
  V  V566  1  0.25000000  0.91666667  0.16666667  1
  W  W567  1  0.25000000  0.91666667  0.25000000  1
  V  V568  1  0.25000000  0.91666667  0.33333333  1
  W  W569  1  0.25000000  0.91666667  0.41666667  1
  V  V570  1  0.25000000  0.91666667  0.50000000  1
  V  V571  1  0.25000000  0.91666667  0.58333333  1
  V  V572  1  0.25000000  0.91666667  0.66666667  1
  V  V573  1  0.25000000  0.91666667  0.75000000  1
  Zr  Zr574  1  0.25000000  0.91666667  0.83333333  1
  V  V575  1  0.25000000  0.91666667  0.91666667  1
  V  V576  1  0.33333333  0.00000000  0.00000000  1
  V  V577  1  0.33333333  0.00000000  0.08333333  1
  V  V578  1  0.33333333  0.00000000  0.16666667  1
  V  V579  1  0.33333333  0.00000000  0.25000000  1
  W  W580  1  0.33333333  0.00000000  0.33333333  1
  W  W581  1  0.33333333  0.00000000  0.41666667  1
  W  W582  1  0.33333333  0.00000000  0.50000000  1
  V  V583  1  0.33333333  0.00000000  0.58333333  1
  V  V584  1  0.33333333  0.00000000  0.66666667  1
  V  V585  1  0.33333333  0.00000000  0.75000000  1
  Zr  Zr586  1  0.33333333  0.00000000  0.83333333  1
  V  V587  1  0.33333333  0.00000000  0.91666667  1
  V  V588  1  0.33333333  0.08333333  0.00000000  1
  V  V589  1  0.33333333  0.08333333  0.08333333  1
  V  V590  1  0.33333333  0.08333333  0.16666667  1
  V  V591  1  0.33333333  0.08333333  0.25000000  1
  Zr  Zr592  1  0.33333333  0.08333333  0.33333333  1
  V  V593  1  0.33333333  0.08333333  0.41666667  1
  Cr  Cr594  1  0.33333333  0.08333333  0.50000000  1
  V  V595  1  0.33333333  0.08333333  0.58333333  1
  V  V596  1  0.33333333  0.08333333  0.66666667  1
  V  V597  1  0.33333333  0.08333333  0.75000000  1
  W  W598  1  0.33333333  0.08333333  0.83333333  1
  Ti  Ti599  1  0.33333333  0.08333333  0.91666667  1
  V  V600  1  0.33333333  0.16666667  0.00000000  1
  Cr  Cr601  1  0.33333333  0.16666667  0.08333333  1
  V  V602  1  0.33333333  0.16666667  0.16666667  1
  Cr  Cr603  1  0.33333333  0.16666667  0.25000000  1
  V  V604  1  0.33333333  0.16666667  0.33333333  1
  W  W605  1  0.33333333  0.16666667  0.41666667  1
  Cr  Cr606  1  0.33333333  0.16666667  0.50000000  1
  V  V607  1  0.33333333  0.16666667  0.58333333  1
  Cr  Cr608  1  0.33333333  0.16666667  0.66666667  1
  V  V609  1  0.33333333  0.16666667  0.75000000  1
  V  V610  1  0.33333333  0.16666667  0.83333333  1
  V  V611  1  0.33333333  0.16666667  0.91666667  1
  V  V612  1  0.33333333  0.25000000  0.00000000  1
  Cr  Cr613  1  0.33333333  0.25000000  0.08333333  1
  V  V614  1  0.33333333  0.25000000  0.16666667  1
  Cr  Cr615  1  0.33333333  0.25000000  0.25000000  1
  V  V616  1  0.33333333  0.25000000  0.33333333  1
  V  V617  1  0.33333333  0.25000000  0.41666667  1
  V  V618  1  0.33333333  0.25000000  0.50000000  1
  V  V619  1  0.33333333  0.25000000  0.58333333  1
  W  W620  1  0.33333333  0.25000000  0.66666667  1
  Zr  Zr621  1  0.33333333  0.25000000  0.75000000  1
  Zr  Zr622  1  0.33333333  0.25000000  0.83333333  1
  V  V623  1  0.33333333  0.25000000  0.91666667  1
  V  V624  1  0.33333333  0.33333333  0.00000000  1
  V  V625  1  0.33333333  0.33333333  0.08333333  1
  W  W626  1  0.33333333  0.33333333  0.16666667  1
  V  V627  1  0.33333333  0.33333333  0.25000000  1
  V  V628  1  0.33333333  0.33333333  0.33333333  1
  V  V629  1  0.33333333  0.33333333  0.41666667  1
  V  V630  1  0.33333333  0.33333333  0.50000000  1
  V  V631  1  0.33333333  0.33333333  0.58333333  1
  Zr  Zr632  1  0.33333333  0.33333333  0.66666667  1
  V  V633  1  0.33333333  0.33333333  0.75000000  1
  W  W634  1  0.33333333  0.33333333  0.83333333  1
  V  V635  1  0.33333333  0.33333333  0.91666667  1
  Zr  Zr636  1  0.33333333  0.41666667  0.00000000  1
  V  V637  1  0.33333333  0.41666667  0.08333333  1
  Zr  Zr638  1  0.33333333  0.41666667  0.16666667  1
  V  V639  1  0.33333333  0.41666667  0.25000000  1
  W  W640  1  0.33333333  0.41666667  0.33333333  1
  V  V641  1  0.33333333  0.41666667  0.41666667  1
  W  W642  1  0.33333333  0.41666667  0.50000000  1
  V  V643  1  0.33333333  0.41666667  0.58333333  1
  Zr  Zr644  1  0.33333333  0.41666667  0.66666667  1
  V  V645  1  0.33333333  0.41666667  0.75000000  1
  V  V646  1  0.33333333  0.41666667  0.83333333  1
  V  V647  1  0.33333333  0.41666667  0.91666667  1
  Cr  Cr648  1  0.33333333  0.50000000  0.00000000  1
  V  V649  1  0.33333333  0.50000000  0.08333333  1
  Cr  Cr650  1  0.33333333  0.50000000  0.16666667  1
  Zr  Zr651  1  0.33333333  0.50000000  0.25000000  1
  V  V652  1  0.33333333  0.50000000  0.33333333  1
  W  W653  1  0.33333333  0.50000000  0.41666667  1
  V  V654  1  0.33333333  0.50000000  0.50000000  1
  W  W655  1  0.33333333  0.50000000  0.58333333  1
  V  V656  1  0.33333333  0.50000000  0.66666667  1
  W  W657  1  0.33333333  0.50000000  0.75000000  1
  Cr  Cr658  1  0.33333333  0.50000000  0.83333333  1
  Zr  Zr659  1  0.33333333  0.50000000  0.91666667  1
  V  V660  1  0.33333333  0.58333333  0.00000000  1
  V  V661  1  0.33333333  0.58333333  0.08333333  1
  V  V662  1  0.33333333  0.58333333  0.16666667  1
  V  V663  1  0.33333333  0.58333333  0.25000000  1
  V  V664  1  0.33333333  0.58333333  0.33333333  1
  W  W665  1  0.33333333  0.58333333  0.41666667  1
  V  V666  1  0.33333333  0.58333333  0.50000000  1
  Ti  Ti667  1  0.33333333  0.58333333  0.58333333  1
  V  V668  1  0.33333333  0.58333333  0.66666667  1
  V  V669  1  0.33333333  0.58333333  0.75000000  1
  V  V670  1  0.33333333  0.58333333  0.83333333  1
  V  V671  1  0.33333333  0.58333333  0.91666667  1
  V  V672  1  0.33333333  0.66666667  1.00000000  1
  V  V673  1  0.33333333  0.66666667  0.08333333  1
  V  V674  1  0.33333333  0.66666667  0.16666667  1
  V  V675  1  0.33333333  0.66666667  0.25000000  1
  V  V676  1  0.33333333  0.66666667  0.33333333  1
  Cr  Cr677  1  0.33333333  0.66666667  0.41666667  1
  Ti  Ti678  1  0.33333333  0.66666667  0.50000000  1
  V  V679  1  0.33333333  0.66666667  0.58333333  1
  V  V680  1  0.33333333  0.66666667  0.66666667  1
  V  V681  1  0.33333333  0.66666667  0.75000000  1
  V  V682  1  0.33333333  0.66666667  0.83333333  1
  W  W683  1  0.33333333  0.66666667  0.91666667  1
  Ti  Ti684  1  0.33333333  0.75000000  1.00000000  1
  V  V685  1  0.33333333  0.75000000  0.08333333  1
  V  V686  1  0.33333333  0.75000000  0.16666667  1
  Cr  Cr687  1  0.33333333  0.75000000  0.25000000  1
  V  V688  1  0.33333333  0.75000000  0.33333333  1
  V  V689  1  0.33333333  0.75000000  0.41666667  1
  Ti  Ti690  1  0.33333333  0.75000000  0.50000000  1
  V  V691  1  0.33333333  0.75000000  0.58333333  1
  Cr  Cr692  1  0.33333333  0.75000000  0.66666667  1
  V  V693  1  0.33333333  0.75000000  0.75000000  1
  V  V694  1  0.33333333  0.75000000  0.83333333  1
  V  V695  1  0.33333333  0.75000000  0.91666667  1
  V  V696  1  0.33333333  0.83333333  0.00000000  1
  W  W697  1  0.33333333  0.83333333  0.08333333  1
  Ti  Ti698  1  0.33333333  0.83333333  0.16666667  1
  W  W699  1  0.33333333  0.83333333  0.25000000  1
  W  W700  1  0.33333333  0.83333333  0.33333333  1
  V  V701  1  0.33333333  0.83333333  0.41666667  1
  V  V702  1  0.33333333  0.83333333  0.50000000  1
  V  V703  1  0.33333333  0.83333333  0.58333333  1
  V  V704  1  0.33333333  0.83333333  0.66666667  1
  Cr  Cr705  1  0.33333333  0.83333333  0.75000000  1
  V  V706  1  0.33333333  0.83333333  0.83333333  1
  V  V707  1  0.33333333  0.83333333  0.91666667  1
  V  V708  1  0.33333333  0.91666667  0.00000000  1
  Zr  Zr709  1  0.33333333  0.91666667  0.08333333  1
  Cr  Cr710  1  0.33333333  0.91666667  0.16666667  1
  V  V711  1  0.33333333  0.91666667  0.25000000  1
  V  V712  1  0.33333333  0.91666667  0.33333333  1
  V  V713  1  0.33333333  0.91666667  0.41666667  1
  V  V714  1  0.33333333  0.91666667  0.50000000  1
  Cr  Cr715  1  0.33333333  0.91666667  0.58333333  1
  V  V716  1  0.33333333  0.91666667  0.66666667  1
  W  W717  1  0.33333333  0.91666667  0.75000000  1
  Ti  Ti718  1  0.33333333  0.91666667  0.83333333  1
  V  V719  1  0.33333333  0.91666667  0.91666667  1
  V  V720  1  0.41666667  0.00000000  0.00000000  1
  V  V721  1  0.41666667  0.00000000  0.08333333  1
  V  V722  1  0.41666667  0.00000000  0.16666667  1
  V  V723  1  0.41666667  0.00000000  0.25000000  1
  V  V724  1  0.41666667  0.00000000  0.33333333  1
  W  W725  1  0.41666667  0.00000000  0.41666667  1
  V  V726  1  0.41666667  0.00000000  0.50000000  1
  W  W727  1  0.41666667  0.00000000  0.58333333  1
  W  W728  1  0.41666667  0.00000000  0.66666667  1
  V  V729  1  0.41666667  0.00000000  0.75000000  1
  V  V730  1  0.41666667  0.00000000  0.83333333  1
  Ti  Ti731  1  0.41666667  0.00000000  0.91666667  1
  V  V732  1  0.41666667  0.08333333  0.00000000  1
  W  W733  1  0.41666667  0.08333333  0.08333333  1
  Cr  Cr734  1  0.41666667  0.08333333  0.16666667  1
  Ti  Ti735  1  0.41666667  0.08333333  0.25000000  1
  V  V736  1  0.41666667  0.08333333  0.33333333  1
  V  V737  1  0.41666667  0.08333333  0.41666667  1
  V  V738  1  0.41666667  0.08333333  0.50000000  1
  V  V739  1  0.41666667  0.08333333  0.58333333  1
  V  V740  1  0.41666667  0.08333333  0.66666667  1
  V  V741  1  0.41666667  0.08333333  0.75000000  1
  V  V742  1  0.41666667  0.08333333  0.83333333  1
  V  V743  1  0.41666667  0.08333333  0.91666667  1
  V  V744  1  0.41666667  0.16666667  0.00000000  1
  V  V745  1  0.41666667  0.16666667  0.08333333  1
  V  V746  1  0.41666667  0.16666667  0.16666667  1
  W  W747  1  0.41666667  0.16666667  0.25000000  1
  W  W748  1  0.41666667  0.16666667  0.33333333  1
  V  V749  1  0.41666667  0.16666667  0.41666667  1
  V  V750  1  0.41666667  0.16666667  0.50000000  1
  V  V751  1  0.41666667  0.16666667  0.58333333  1
  V  V752  1  0.41666667  0.16666667  0.66666667  1
  V  V753  1  0.41666667  0.16666667  0.75000000  1
  Zr  Zr754  1  0.41666667  0.16666667  0.83333333  1
  V  V755  1  0.41666667  0.16666667  0.91666667  1
  W  W756  1  0.41666667  0.25000000  0.00000000  1
  W  W757  1  0.41666667  0.25000000  0.08333333  1
  V  V758  1  0.41666667  0.25000000  0.16666667  1
  V  V759  1  0.41666667  0.25000000  0.25000000  1
  V  V760  1  0.41666667  0.25000000  0.33333333  1
  Ti  Ti761  1  0.41666667  0.25000000  0.41666667  1
  Cr  Cr762  1  0.41666667  0.25000000  0.50000000  1
  V  V763  1  0.41666667  0.25000000  0.58333333  1
  V  V764  1  0.41666667  0.25000000  0.66666667  1
  V  V765  1  0.41666667  0.25000000  0.75000000  1
  V  V766  1  0.41666667  0.25000000  0.83333333  1
  Zr  Zr767  1  0.41666667  0.25000000  0.91666667  1
  V  V768  1  0.41666667  0.33333333  0.00000000  1
  Cr  Cr769  1  0.41666667  0.33333333  0.08333333  1
  V  V770  1  0.41666667  0.33333333  0.16666667  1
  V  V771  1  0.41666667  0.33333333  0.25000000  1
  Ti  Ti772  1  0.41666667  0.33333333  0.33333333  1
  Cr  Cr773  1  0.41666667  0.33333333  0.41666667  1
  Zr  Zr774  1  0.41666667  0.33333333  0.50000000  1
  V  V775  1  0.41666667  0.33333333  0.58333333  1
  V  V776  1  0.41666667  0.33333333  0.66666667  1
  V  V777  1  0.41666667  0.33333333  0.75000000  1
  Zr  Zr778  1  0.41666667  0.33333333  0.83333333  1
  V  V779  1  0.41666667  0.33333333  0.91666667  1
  Cr  Cr780  1  0.41666667  0.41666667  1.00000000  1
  V  V781  1  0.41666667  0.41666667  0.08333333  1
  V  V782  1  0.41666667  0.41666667  0.16666667  1
  V  V783  1  0.41666667  0.41666667  0.25000000  1
  Zr  Zr784  1  0.41666667  0.41666667  0.33333333  1
  V  V785  1  0.41666667  0.41666667  0.41666667  1
  Zr  Zr786  1  0.41666667  0.41666667  0.50000000  1
  V  V787  1  0.41666667  0.41666667  0.58333333  1
  V  V788  1  0.41666667  0.41666667  0.66666667  1
  Cr  Cr789  1  0.41666667  0.41666667  0.75000000  1
  Zr  Zr790  1  0.41666667  0.41666667  0.83333333  1
  V  V791  1  0.41666667  0.41666667  0.91666667  1
  V  V792  1  0.41666667  0.50000000  1.00000000  1
  V  V793  1  0.41666667  0.50000000  0.08333333  1
  V  V794  1  0.41666667  0.50000000  0.16666667  1
  Cr  Cr795  1  0.41666667  0.50000000  0.25000000  1
  Ti  Ti796  1  0.41666667  0.50000000  0.33333333  1
  V  V797  1  0.41666667  0.50000000  0.41666667  1
  Zr  Zr798  1  0.41666667  0.50000000  0.50000000  1
  Zr  Zr799  1  0.41666667  0.50000000  0.58333333  1
  V  V800  1  0.41666667  0.50000000  0.66666667  1
  V  V801  1  0.41666667  0.50000000  0.75000000  1
  V  V802  1  0.41666667  0.50000000  0.83333333  1
  V  V803  1  0.41666667  0.50000000  0.91666667  1
  V  V804  1  0.41666667  0.58333333  0.00000000  1
  W  W805  1  0.41666667  0.58333333  0.08333333  1
  Ti  Ti806  1  0.41666667  0.58333333  0.16666667  1
  V  V807  1  0.41666667  0.58333333  0.25000000  1
  Zr  Zr808  1  0.41666667  0.58333333  0.33333333  1
  Cr  Cr809  1  0.41666667  0.58333333  0.41666667  1
  V  V810  1  0.41666667  0.58333333  0.50000000  1
  Cr  Cr811  1  0.41666667  0.58333333  0.58333333  1
  V  V812  1  0.41666667  0.58333333  0.66666667  1
  V  V813  1  0.41666667  0.58333333  0.75000000  1
  V  V814  1  0.41666667  0.58333333  0.83333333  1
  V  V815  1  0.41666667  0.58333333  0.91666667  1
  V  V816  1  0.41666667  0.66666667  1.00000000  1
  W  W817  1  0.41666667  0.66666667  0.08333333  1
  Cr  Cr818  1  0.41666667  0.66666667  0.16666667  1
  Zr  Zr819  1  0.41666667  0.66666667  0.25000000  1
  V  V820  1  0.41666667  0.66666667  0.33333333  1
  W  W821  1  0.41666667  0.66666667  0.41666667  1
  Zr  Zr822  1  0.41666667  0.66666667  0.50000000  1
  Zr  Zr823  1  0.41666667  0.66666667  0.58333333  1
  V  V824  1  0.41666667  0.66666667  0.66666667  1
  V  V825  1  0.41666667  0.66666667  0.75000000  1
  V  V826  1  0.41666667  0.66666667  0.83333333  1
  V  V827  1  0.41666667  0.66666667  0.91666667  1
  V  V828  1  0.41666667  0.75000000  1.00000000  1
  V  V829  1  0.41666667  0.75000000  0.08333333  1
  Cr  Cr830  1  0.41666667  0.75000000  0.16666667  1
  V  V831  1  0.41666667  0.75000000  0.25000000  1
  V  V832  1  0.41666667  0.75000000  0.33333333  1
  V  V833  1  0.41666667  0.75000000  0.41666667  1
  V  V834  1  0.41666667  0.75000000  0.50000000  1
  V  V835  1  0.41666667  0.75000000  0.58333333  1
  V  V836  1  0.41666667  0.75000000  0.66666667  1
  Cr  Cr837  1  0.41666667  0.75000000  0.75000000  1
  V  V838  1  0.41666667  0.75000000  0.83333333  1
  V  V839  1  0.41666667  0.75000000  0.91666667  1
  V  V840  1  0.41666667  0.83333333  0.00000000  1
  V  V841  1  0.41666667  0.83333333  0.08333333  1
  V  V842  1  0.41666667  0.83333333  0.16666667  1
  Zr  Zr843  1  0.41666667  0.83333333  0.25000000  1
  Zr  Zr844  1  0.41666667  0.83333333  0.33333333  1
  V  V845  1  0.41666667  0.83333333  0.41666667  1
  Ti  Ti846  1  0.41666667  0.83333333  0.50000000  1
  V  V847  1  0.41666667  0.83333333  0.58333333  1
  Zr  Zr848  1  0.41666667  0.83333333  0.66666667  1
  Zr  Zr849  1  0.41666667  0.83333333  0.75000000  1
  W  W850  1  0.41666667  0.83333333  0.83333333  1
  V  V851  1  0.41666667  0.83333333  0.91666667  1
  W  W852  1  0.41666667  0.91666667  0.00000000  1
  Zr  Zr853  1  0.41666667  0.91666667  0.08333333  1
  V  V854  1  0.41666667  0.91666667  0.16666667  1
  V  V855  1  0.41666667  0.91666667  0.25000000  1
  V  V856  1  0.41666667  0.91666667  0.33333333  1
  V  V857  1  0.41666667  0.91666667  0.41666667  1
  W  W858  1  0.41666667  0.91666667  0.50000000  1
  V  V859  1  0.41666667  0.91666667  0.58333333  1
  Cr  Cr860  1  0.41666667  0.91666667  0.66666667  1
  V  V861  1  0.41666667  0.91666667  0.75000000  1
  V  V862  1  0.41666667  0.91666667  0.83333333  1
  V  V863  1  0.41666667  0.91666667  0.91666667  1
  Ti  Ti864  1  0.50000000  0.00000000  0.00000000  1
  W  W865  1  0.50000000  0.00000000  0.08333333  1
  V  V866  1  0.50000000  0.00000000  0.16666667  1
  V  V867  1  0.50000000  0.00000000  0.25000000  1
  Zr  Zr868  1  0.50000000  0.00000000  0.33333333  1
  Ti  Ti869  1  0.50000000  0.00000000  0.41666667  1
  V  V870  1  0.50000000  0.00000000  0.50000000  1
  V  V871  1  0.50000000  0.00000000  0.58333333  1
  Cr  Cr872  1  0.50000000  0.00000000  0.66666667  1
  W  W873  1  0.50000000  0.00000000  0.75000000  1
  V  V874  1  0.50000000  0.00000000  0.83333333  1
  Cr  Cr875  1  0.50000000  0.00000000  0.91666667  1
  V  V876  1  0.50000000  0.08333333  0.00000000  1
  V  V877  1  0.50000000  0.08333333  0.08333333  1
  V  V878  1  0.50000000  0.08333333  0.16666667  1
  W  W879  1  0.50000000  0.08333333  0.25000000  1
  V  V880  1  0.50000000  0.08333333  0.33333333  1
  V  V881  1  0.50000000  0.08333333  0.41666667  1
  V  V882  1  0.50000000  0.08333333  0.50000000  1
  V  V883  1  0.50000000  0.08333333  0.58333333  1
  V  V884  1  0.50000000  0.08333333  0.66666667  1
  Cr  Cr885  1  0.50000000  0.08333333  0.75000000  1
  Cr  Cr886  1  0.50000000  0.08333333  0.83333333  1
  V  V887  1  0.50000000  0.08333333  0.91666667  1
  Cr  Cr888  1  0.50000000  0.16666667  0.00000000  1
  V  V889  1  0.50000000  0.16666667  0.08333333  1
  W  W890  1  0.50000000  0.16666667  0.16666667  1
  V  V891  1  0.50000000  0.16666667  0.25000000  1
  V  V892  1  0.50000000  0.16666667  0.33333333  1
  V  V893  1  0.50000000  0.16666667  0.41666667  1
  V  V894  1  0.50000000  0.16666667  0.50000000  1
  V  V895  1  0.50000000  0.16666667  0.58333333  1
  V  V896  1  0.50000000  0.16666667  0.66666667  1
  V  V897  1  0.50000000  0.16666667  0.75000000  1
  V  V898  1  0.50000000  0.16666667  0.83333333  1
  V  V899  1  0.50000000  0.16666667  0.91666667  1
  V  V900  1  0.50000000  0.25000000  0.00000000  1
  W  W901  1  0.50000000  0.25000000  0.08333333  1
  V  V902  1  0.50000000  0.25000000  0.16666667  1
  Cr  Cr903  1  0.50000000  0.25000000  0.25000000  1
  V  V904  1  0.50000000  0.25000000  0.33333333  1
  V  V905  1  0.50000000  0.25000000  0.41666667  1
  Zr  Zr906  1  0.50000000  0.25000000  0.50000000  1
  V  V907  1  0.50000000  0.25000000  0.58333333  1
  W  W908  1  0.50000000  0.25000000  0.66666667  1
  V  V909  1  0.50000000  0.25000000  0.75000000  1
  Cr  Cr910  1  0.50000000  0.25000000  0.83333333  1
  V  V911  1  0.50000000  0.25000000  0.91666667  1
  Zr  Zr912  1  0.50000000  0.33333333  1.00000000  1
  V  V913  1  0.50000000  0.33333333  0.08333333  1
  Zr  Zr914  1  0.50000000  0.33333333  0.16666667  1
  Cr  Cr915  1  0.50000000  0.33333333  0.25000000  1
  Ti  Ti916  1  0.50000000  0.33333333  0.33333333  1
  V  V917  1  0.50000000  0.33333333  0.41666667  1
  W  W918  1  0.50000000  0.33333333  0.50000000  1
  W  W919  1  0.50000000  0.33333333  0.58333333  1
  W  W920  1  0.50000000  0.33333333  0.66666667  1
  V  V921  1  0.50000000  0.33333333  0.75000000  1
  W  W922  1  0.50000000  0.33333333  0.83333333  1
  Cr  Cr923  1  0.50000000  0.33333333  0.91666667  1
  Zr  Zr924  1  0.50000000  0.41666667  1.00000000  1
  V  V925  1  0.50000000  0.41666667  0.08333333  1
  V  V926  1  0.50000000  0.41666667  0.16666667  1
  V  V927  1  0.50000000  0.41666667  0.25000000  1
  V  V928  1  0.50000000  0.41666667  0.33333333  1
  Zr  Zr929  1  0.50000000  0.41666667  0.41666667  1
  V  V930  1  0.50000000  0.41666667  0.50000000  1
  V  V931  1  0.50000000  0.41666667  0.58333333  1
  V  V932  1  0.50000000  0.41666667  0.66666667  1
  V  V933  1  0.50000000  0.41666667  0.75000000  1
  Cr  Cr934  1  0.50000000  0.41666667  0.83333333  1
  V  V935  1  0.50000000  0.41666667  0.91666667  1
  W  W936  1  0.50000000  0.50000000  1.00000000  1
  V  V937  1  0.50000000  0.50000000  0.08333333  1
  Ti  Ti938  1  0.50000000  0.50000000  0.16666667  1
  V  V939  1  0.50000000  0.50000000  0.25000000  1
  V  V940  1  0.50000000  0.50000000  0.33333333  1
  Ti  Ti941  1  0.50000000  0.50000000  0.41666667  1
  Cr  Cr942  1  0.50000000  0.50000000  0.50000000  1
  Ti  Ti943  1  0.50000000  0.50000000  0.58333333  1
  Zr  Zr944  1  0.50000000  0.50000000  0.66666667  1
  Ti  Ti945  1  0.50000000  0.50000000  0.75000000  1
  Zr  Zr946  1  0.50000000  0.50000000  0.83333333  1
  V  V947  1  0.50000000  0.50000000  0.91666667  1
  V  V948  1  0.50000000  0.58333333  0.00000000  1
  V  V949  1  0.50000000  0.58333333  0.08333333  1
  V  V950  1  0.50000000  0.58333333  0.16666667  1
  V  V951  1  0.50000000  0.58333333  0.25000000  1
  V  V952  1  0.50000000  0.58333333  0.33333333  1
  Zr  Zr953  1  0.50000000  0.58333333  0.41666667  1
  V  V954  1  0.50000000  0.58333333  0.50000000  1
  V  V955  1  0.50000000  0.58333333  0.58333333  1
  V  V956  1  0.50000000  0.58333333  0.66666667  1
  W  W957  1  0.50000000  0.58333333  0.75000000  1
  V  V958  1  0.50000000  0.58333333  0.83333333  1
  Zr  Zr959  1  0.50000000  0.58333333  0.91666667  1
  Zr  Zr960  1  0.50000000  0.66666667  1.00000000  1
  V  V961  1  0.50000000  0.66666667  0.08333333  1
  V  V962  1  0.50000000  0.66666667  0.16666667  1
  V  V963  1  0.50000000  0.66666667  0.25000000  1
  Cr  Cr964  1  0.50000000  0.66666667  0.33333333  1
  W  W965  1  0.50000000  0.66666667  0.41666667  1
  Ti  Ti966  1  0.50000000  0.66666667  0.50000000  1
  Cr  Cr967  1  0.50000000  0.66666667  0.58333333  1
  V  V968  1  0.50000000  0.66666667  0.66666667  1
  V  V969  1  0.50000000  0.66666667  0.75000000  1
  V  V970  1  0.50000000  0.66666667  0.83333333  1
  W  W971  1  0.50000000  0.66666667  0.91666667  1
  V  V972  1  0.50000000  0.75000000  1.00000000  1
  Zr  Zr973  1  0.50000000  0.75000000  0.08333333  1
  V  V974  1  0.50000000  0.75000000  0.16666667  1
  W  W975  1  0.50000000  0.75000000  0.25000000  1
  V  V976  1  0.50000000  0.75000000  0.33333333  1
  Ti  Ti977  1  0.50000000  0.75000000  0.41666667  1
  V  V978  1  0.50000000  0.75000000  0.50000000  1
  Ti  Ti979  1  0.50000000  0.75000000  0.58333333  1
  V  V980  1  0.50000000  0.75000000  0.66666667  1
  Zr  Zr981  1  0.50000000  0.75000000  0.75000000  1
  V  V982  1  0.50000000  0.75000000  0.83333333  1
  Cr  Cr983  1  0.50000000  0.75000000  0.91666667  1
  W  W984  1  0.50000000  0.83333333  0.00000000  1
  V  V985  1  0.50000000  0.83333333  0.08333333  1
  V  V986  1  0.50000000  0.83333333  0.16666667  1
  Cr  Cr987  1  0.50000000  0.83333333  0.25000000  1
  V  V988  1  0.50000000  0.83333333  0.33333333  1
  V  V989  1  0.50000000  0.83333333  0.41666667  1
  V  V990  1  0.50000000  0.83333333  0.50000000  1
  V  V991  1  0.50000000  0.83333333  0.58333333  1
  V  V992  1  0.50000000  0.83333333  0.66666667  1
  Zr  Zr993  1  0.50000000  0.83333333  0.75000000  1
  Zr  Zr994  1  0.50000000  0.83333333  0.83333333  1
  Ti  Ti995  1  0.50000000  0.83333333  0.91666667  1
  V  V996  1  0.50000000  0.91666667  0.00000000  1
  V  V997  1  0.50000000  0.91666667  0.08333333  1
  Cr  Cr998  1  0.50000000  0.91666667  0.16666667  1
  Zr  Zr999  1  0.50000000  0.91666667  0.25000000  1
  V  V1000  1  0.50000000  0.91666667  0.33333333  1
  V  V1001  1  0.50000000  0.91666667  0.41666667  1
  V  V1002  1  0.50000000  0.91666667  0.50000000  1
  V  V1003  1  0.50000000  0.91666667  0.58333333  1
  Zr  Zr1004  1  0.50000000  0.91666667  0.66666667  1
  W  W1005  1  0.50000000  0.91666667  0.75000000  1
  Ti  Ti1006  1  0.50000000  0.91666667  0.83333333  1
  V  V1007  1  0.50000000  0.91666667  0.91666667  1
  V  V1008  1  0.58333333  0.00000000  0.00000000  1
  W  W1009  1  0.58333333  0.00000000  0.08333333  1
  V  V1010  1  0.58333333  0.00000000  0.16666667  1
  Zr  Zr1011  1  0.58333333  0.00000000  0.25000000  1
  V  V1012  1  0.58333333  0.00000000  0.33333333  1
  V  V1013  1  0.58333333  0.00000000  0.41666667  1
  V  V1014  1  0.58333333  0.00000000  0.50000000  1
  W  W1015  1  0.58333333  0.00000000  0.58333333  1
  V  V1016  1  0.58333333  0.00000000  0.66666667  1
  V  V1017  1  0.58333333  0.00000000  0.75000000  1
  Ti  Ti1018  1  0.58333333  0.00000000  0.83333333  1
  V  V1019  1  0.58333333  0.00000000  0.91666667  1
  Zr  Zr1020  1  0.58333333  0.08333333  0.00000000  1
  W  W1021  1  0.58333333  0.08333333  0.08333333  1
  V  V1022  1  0.58333333  0.08333333  0.16666667  1
  V  V1023  1  0.58333333  0.08333333  0.25000000  1
  V  V1024  1  0.58333333  0.08333333  0.33333333  1
  V  V1025  1  0.58333333  0.08333333  0.41666667  1
  V  V1026  1  0.58333333  0.08333333  0.50000000  1
  W  W1027  1  0.58333333  0.08333333  0.58333333  1
  Ti  Ti1028  1  0.58333333  0.08333333  0.66666667  1
  V  V1029  1  0.58333333  0.08333333  0.75000000  1
  W  W1030  1  0.58333333  0.08333333  0.83333333  1
  V  V1031  1  0.58333333  0.08333333  0.91666667  1
  V  V1032  1  0.58333333  0.16666667  0.00000000  1
  Zr  Zr1033  1  0.58333333  0.16666667  0.08333333  1
  Cr  Cr1034  1  0.58333333  0.16666667  0.16666667  1
  Cr  Cr1035  1  0.58333333  0.16666667  0.25000000  1
  Cr  Cr1036  1  0.58333333  0.16666667  0.33333333  1
  V  V1037  1  0.58333333  0.16666667  0.41666667  1
  Cr  Cr1038  1  0.58333333  0.16666667  0.50000000  1
  V  V1039  1  0.58333333  0.16666667  0.58333333  1
  Cr  Cr1040  1  0.58333333  0.16666667  0.66666667  1
  Cr  Cr1041  1  0.58333333  0.16666667  0.75000000  1
  Zr  Zr1042  1  0.58333333  0.16666667  0.83333333  1
  V  V1043  1  0.58333333  0.16666667  0.91666667  1
  Ti  Ti1044  1  0.58333333  0.25000000  0.00000000  1
  W  W1045  1  0.58333333  0.25000000  0.08333333  1
  V  V1046  1  0.58333333  0.25000000  0.16666667  1
  Ti  Ti1047  1  0.58333333  0.25000000  0.25000000  1
  Zr  Zr1048  1  0.58333333  0.25000000  0.33333333  1
  Cr  Cr1049  1  0.58333333  0.25000000  0.41666667  1
  V  V1050  1  0.58333333  0.25000000  0.50000000  1
  W  W1051  1  0.58333333  0.25000000  0.58333333  1
  V  V1052  1  0.58333333  0.25000000  0.66666667  1
  V  V1053  1  0.58333333  0.25000000  0.75000000  1
  V  V1054  1  0.58333333  0.25000000  0.83333333  1
  W  W1055  1  0.58333333  0.25000000  0.91666667  1
  V  V1056  1  0.58333333  0.33333333  1.00000000  1
  V  V1057  1  0.58333333  0.33333333  0.08333333  1
  W  W1058  1  0.58333333  0.33333333  0.16666667  1
  W  W1059  1  0.58333333  0.33333333  0.25000000  1
  V  V1060  1  0.58333333  0.33333333  0.33333333  1
  W  W1061  1  0.58333333  0.33333333  0.41666667  1
  V  V1062  1  0.58333333  0.33333333  0.50000000  1
  V  V1063  1  0.58333333  0.33333333  0.58333333  1
  Zr  Zr1064  1  0.58333333  0.33333333  0.66666667  1
  V  V1065  1  0.58333333  0.33333333  0.75000000  1
  V  V1066  1  0.58333333  0.33333333  0.83333333  1
  V  V1067  1  0.58333333  0.33333333  0.91666667  1
  V  V1068  1  0.58333333  0.41666667  0.00000000  1
  V  V1069  1  0.58333333  0.41666667  0.08333333  1
  Cr  Cr1070  1  0.58333333  0.41666667  0.16666667  1
  V  V1071  1  0.58333333  0.41666667  0.25000000  1
  V  V1072  1  0.58333333  0.41666667  0.33333333  1
  V  V1073  1  0.58333333  0.41666667  0.41666667  1
  V  V1074  1  0.58333333  0.41666667  0.50000000  1
  Zr  Zr1075  1  0.58333333  0.41666667  0.58333333  1
  Zr  Zr1076  1  0.58333333  0.41666667  0.66666667  1
  V  V1077  1  0.58333333  0.41666667  0.75000000  1
  V  V1078  1  0.58333333  0.41666667  0.83333333  1
  Ti  Ti1079  1  0.58333333  0.41666667  0.91666667  1
  V  V1080  1  0.58333333  0.50000000  0.00000000  1
  Zr  Zr1081  1  0.58333333  0.50000000  0.08333333  1
  V  V1082  1  0.58333333  0.50000000  0.16666667  1
  W  W1083  1  0.58333333  0.50000000  0.25000000  1
  V  V1084  1  0.58333333  0.50000000  0.33333333  1
  V  V1085  1  0.58333333  0.50000000  0.41666667  1
  Zr  Zr1086  1  0.58333333  0.50000000  0.50000000  1
  V  V1087  1  0.58333333  0.50000000  0.58333333  1
  Ti  Ti1088  1  0.58333333  0.50000000  0.66666667  1
  V  V1089  1  0.58333333  0.50000000  0.75000000  1
  Zr  Zr1090  1  0.58333333  0.50000000  0.83333333  1
  V  V1091  1  0.58333333  0.50000000  0.91666667  1
  V  V1092  1  0.58333333  0.58333333  0.00000000  1
  V  V1093  1  0.58333333  0.58333333  0.08333333  1
  V  V1094  1  0.58333333  0.58333333  0.16666667  1
  V  V1095  1  0.58333333  0.58333333  0.25000000  1
  Zr  Zr1096  1  0.58333333  0.58333333  0.33333333  1
  Cr  Cr1097  1  0.58333333  0.58333333  0.41666667  1
  V  V1098  1  0.58333333  0.58333333  0.50000000  1
  V  V1099  1  0.58333333  0.58333333  0.58333333  1
  W  W1100  1  0.58333333  0.58333333  0.66666667  1
  V  V1101  1  0.58333333  0.58333333  0.75000000  1
  V  V1102  1  0.58333333  0.58333333  0.83333333  1
  V  V1103  1  0.58333333  0.58333333  0.91666667  1
  V  V1104  1  0.58333333  0.66666667  1.00000000  1
  V  V1105  1  0.58333333  0.66666667  0.08333333  1
  V  V1106  1  0.58333333  0.66666667  0.16666667  1
  V  V1107  1  0.58333333  0.66666667  0.25000000  1
  V  V1108  1  0.58333333  0.66666667  0.33333333  1
  Cr  Cr1109  1  0.58333333  0.66666667  0.41666667  1
  V  V1110  1  0.58333333  0.66666667  0.50000000  1
  W  W1111  1  0.58333333  0.66666667  0.58333333  1
  V  V1112  1  0.58333333  0.66666667  0.66666667  1
  V  V1113  1  0.58333333  0.66666667  0.75000000  1
  W  W1114  1  0.58333333  0.66666667  0.83333333  1
  Ti  Ti1115  1  0.58333333  0.66666667  0.91666667  1
  Zr  Zr1116  1  0.58333333  0.75000000  1.00000000  1
  Zr  Zr1117  1  0.58333333  0.75000000  0.08333333  1
  V  V1118  1  0.58333333  0.75000000  0.16666667  1
  Ti  Ti1119  1  0.58333333  0.75000000  0.25000000  1
  Ti  Ti1120  1  0.58333333  0.75000000  0.33333333  1
  Zr  Zr1121  1  0.58333333  0.75000000  0.41666667  1
  W  W1122  1  0.58333333  0.75000000  0.50000000  1
  V  V1123  1  0.58333333  0.75000000  0.58333333  1
  W  W1124  1  0.58333333  0.75000000  0.66666667  1
  V  V1125  1  0.58333333  0.75000000  0.75000000  1
  V  V1126  1  0.58333333  0.75000000  0.83333333  1
  V  V1127  1  0.58333333  0.75000000  0.91666667  1
  Zr  Zr1128  1  0.58333333  0.83333333  0.00000000  1
  V  V1129  1  0.58333333  0.83333333  0.08333333  1
  V  V1130  1  0.58333333  0.83333333  0.16666667  1
  V  V1131  1  0.58333333  0.83333333  0.25000000  1
  V  V1132  1  0.58333333  0.83333333  0.33333333  1
  Zr  Zr1133  1  0.58333333  0.83333333  0.41666667  1
  Zr  Zr1134  1  0.58333333  0.83333333  0.50000000  1
  Cr  Cr1135  1  0.58333333  0.83333333  0.58333333  1
  Cr  Cr1136  1  0.58333333  0.83333333  0.66666667  1
  V  V1137  1  0.58333333  0.83333333  0.75000000  1
  V  V1138  1  0.58333333  0.83333333  0.83333333  1
  Cr  Cr1139  1  0.58333333  0.83333333  0.91666667  1
  Ti  Ti1140  1  0.58333333  0.91666667  1.00000000  1
  Cr  Cr1141  1  0.58333333  0.91666667  0.08333333  1
  Cr  Cr1142  1  0.58333333  0.91666667  0.16666667  1
  V  V1143  1  0.58333333  0.91666667  0.25000000  1
  Cr  Cr1144  1  0.58333333  0.91666667  0.33333333  1
  V  V1145  1  0.58333333  0.91666667  0.41666667  1
  V  V1146  1  0.58333333  0.91666667  0.50000000  1
  Ti  Ti1147  1  0.58333333  0.91666667  0.58333333  1
  W  W1148  1  0.58333333  0.91666667  0.66666667  1
  Cr  Cr1149  1  0.58333333  0.91666667  0.75000000  1
  V  V1150  1  0.58333333  0.91666667  0.83333333  1
  W  W1151  1  0.58333333  0.91666667  0.91666667  1
  V  V1152  1  0.66666667  0.00000000  0.00000000  1
  W  W1153  1  0.66666667  0.00000000  0.08333333  1
  Zr  Zr1154  1  0.66666667  0.00000000  0.16666667  1
  V  V1155  1  0.66666667  0.00000000  0.25000000  1
  Zr  Zr1156  1  0.66666667  0.00000000  0.33333333  1
  V  V1157  1  0.66666667  0.00000000  0.41666667  1
  V  V1158  1  0.66666667  0.00000000  0.50000000  1
  W  W1159  1  0.66666667  0.00000000  0.58333333  1
  V  V1160  1  0.66666667  0.00000000  0.66666667  1
  W  W1161  1  0.66666667  0.00000000  0.75000000  1
  Zr  Zr1162  1  0.66666667  0.00000000  0.83333333  1
  Cr  Cr1163  1  0.66666667  0.00000000  0.91666667  1
  V  V1164  1  0.66666667  0.08333333  0.00000000  1
  V  V1165  1  0.66666667  0.08333333  0.08333333  1
  V  V1166  1  0.66666667  0.08333333  0.16666667  1
  Cr  Cr1167  1  0.66666667  0.08333333  0.25000000  1
  Zr  Zr1168  1  0.66666667  0.08333333  0.33333333  1
  Cr  Cr1169  1  0.66666667  0.08333333  0.41666667  1
  Zr  Zr1170  1  0.66666667  0.08333333  0.50000000  1
  W  W1171  1  0.66666667  0.08333333  0.58333333  1
  V  V1172  1  0.66666667  0.08333333  0.66666667  1
  V  V1173  1  0.66666667  0.08333333  0.75000000  1
  V  V1174  1  0.66666667  0.08333333  0.83333333  1
  Cr  Cr1175  1  0.66666667  0.08333333  0.91666667  1
  W  W1176  1  0.66666667  0.16666667  0.00000000  1
  W  W1177  1  0.66666667  0.16666667  0.08333333  1
  V  V1178  1  0.66666667  0.16666667  0.16666667  1
  W  W1179  1  0.66666667  0.16666667  0.25000000  1
  Zr  Zr1180  1  0.66666667  0.16666667  0.33333333  1
  V  V1181  1  0.66666667  0.16666667  0.41666667  1
  V  V1182  1  0.66666667  0.16666667  0.50000000  1
  V  V1183  1  0.66666667  0.16666667  0.58333333  1
  V  V1184  1  0.66666667  0.16666667  0.66666667  1
  V  V1185  1  0.66666667  0.16666667  0.75000000  1
  V  V1186  1  0.66666667  0.16666667  0.83333333  1
  V  V1187  1  0.66666667  0.16666667  0.91666667  1
  V  V1188  1  0.66666667  0.25000000  0.00000000  1
  V  V1189  1  0.66666667  0.25000000  0.08333333  1
  W  W1190  1  0.66666667  0.25000000  0.16666667  1
  Cr  Cr1191  1  0.66666667  0.25000000  0.25000000  1
  W  W1192  1  0.66666667  0.25000000  0.33333333  1
  V  V1193  1  0.66666667  0.25000000  0.41666667  1
  V  V1194  1  0.66666667  0.25000000  0.50000000  1
  V  V1195  1  0.66666667  0.25000000  0.58333333  1
  V  V1196  1  0.66666667  0.25000000  0.66666667  1
  V  V1197  1  0.66666667  0.25000000  0.75000000  1
  V  V1198  1  0.66666667  0.25000000  0.83333333  1
  V  V1199  1  0.66666667  0.25000000  0.91666667  1
  Cr  Cr1200  1  0.66666667  0.33333333  1.00000000  1
  V  V1201  1  0.66666667  0.33333333  0.08333333  1
  V  V1202  1  0.66666667  0.33333333  0.16666667  1
  V  V1203  1  0.66666667  0.33333333  0.25000000  1
  Zr  Zr1204  1  0.66666667  0.33333333  0.33333333  1
  V  V1205  1  0.66666667  0.33333333  0.41666667  1
  Cr  Cr1206  1  0.66666667  0.33333333  0.50000000  1
  V  V1207  1  0.66666667  0.33333333  0.58333333  1
  V  V1208  1  0.66666667  0.33333333  0.66666667  1
  V  V1209  1  0.66666667  0.33333333  0.75000000  1
  V  V1210  1  0.66666667  0.33333333  0.83333333  1
  V  V1211  1  0.66666667  0.33333333  0.91666667  1
  V  V1212  1  0.66666667  0.41666667  0.00000000  1
  Ti  Ti1213  1  0.66666667  0.41666667  0.08333333  1
  W  W1214  1  0.66666667  0.41666667  0.16666667  1
  Cr  Cr1215  1  0.66666667  0.41666667  0.25000000  1
  V  V1216  1  0.66666667  0.41666667  0.33333333  1
  V  V1217  1  0.66666667  0.41666667  0.41666667  1
  Zr  Zr1218  1  0.66666667  0.41666667  0.50000000  1
  V  V1219  1  0.66666667  0.41666667  0.58333333  1
  Zr  Zr1220  1  0.66666667  0.41666667  0.66666667  1
  Ti  Ti1221  1  0.66666667  0.41666667  0.75000000  1
  V  V1222  1  0.66666667  0.41666667  0.83333333  1
  Zr  Zr1223  1  0.66666667  0.41666667  0.91666667  1
  V  V1224  1  0.66666667  0.50000000  0.00000000  1
  V  V1225  1  0.66666667  0.50000000  0.08333333  1
  Cr  Cr1226  1  0.66666667  0.50000000  0.16666667  1
  V  V1227  1  0.66666667  0.50000000  0.25000000  1
  V  V1228  1  0.66666667  0.50000000  0.33333333  1
  V  V1229  1  0.66666667  0.50000000  0.41666667  1
  Cr  Cr1230  1  0.66666667  0.50000000  0.50000000  1
  W  W1231  1  0.66666667  0.50000000  0.58333333  1
  V  V1232  1  0.66666667  0.50000000  0.66666667  1
  Cr  Cr1233  1  0.66666667  0.50000000  0.75000000  1
  V  V1234  1  0.66666667  0.50000000  0.83333333  1
  V  V1235  1  0.66666667  0.50000000  0.91666667  1
  V  V1236  1  0.66666667  0.58333333  0.00000000  1
  V  V1237  1  0.66666667  0.58333333  0.08333333  1
  V  V1238  1  0.66666667  0.58333333  0.16666667  1
  Cr  Cr1239  1  0.66666667  0.58333333  0.25000000  1
  V  V1240  1  0.66666667  0.58333333  0.33333333  1
  V  V1241  1  0.66666667  0.58333333  0.41666667  1
  V  V1242  1  0.66666667  0.58333333  0.50000000  1
  V  V1243  1  0.66666667  0.58333333  0.58333333  1
  Cr  Cr1244  1  0.66666667  0.58333333  0.66666667  1
  Cr  Cr1245  1  0.66666667  0.58333333  0.75000000  1
  V  V1246  1  0.66666667  0.58333333  0.83333333  1
  V  V1247  1  0.66666667  0.58333333  0.91666667  1
  V  V1248  1  0.66666667  0.66666667  0.00000000  1
  V  V1249  1  0.66666667  0.66666667  0.08333333  1
  Cr  Cr1250  1  0.66666667  0.66666667  0.16666667  1
  Cr  Cr1251  1  0.66666667  0.66666667  0.25000000  1
  V  V1252  1  0.66666667  0.66666667  0.33333333  1
  V  V1253  1  0.66666667  0.66666667  0.41666667  1
  Zr  Zr1254  1  0.66666667  0.66666667  0.50000000  1
  W  W1255  1  0.66666667  0.66666667  0.58333333  1
  V  V1256  1  0.66666667  0.66666667  0.66666667  1
  W  W1257  1  0.66666667  0.66666667  0.75000000  1
  Cr  Cr1258  1  0.66666667  0.66666667  0.83333333  1
  V  V1259  1  0.66666667  0.66666667  0.91666667  1
  Zr  Zr1260  1  0.66666667  0.75000000  1.00000000  1
  V  V1261  1  0.66666667  0.75000000  0.08333333  1
  V  V1262  1  0.66666667  0.75000000  0.16666667  1
  V  V1263  1  0.66666667  0.75000000  0.25000000  1
  W  W1264  1  0.66666667  0.75000000  0.33333333  1
  Cr  Cr1265  1  0.66666667  0.75000000  0.41666667  1
  Cr  Cr1266  1  0.66666667  0.75000000  0.50000000  1
  Cr  Cr1267  1  0.66666667  0.75000000  0.58333333  1
  Zr  Zr1268  1  0.66666667  0.75000000  0.66666667  1
  V  V1269  1  0.66666667  0.75000000  0.75000000  1
  V  V1270  1  0.66666667  0.75000000  0.83333333  1
  V  V1271  1  0.66666667  0.75000000  0.91666667  1
  V  V1272  1  0.66666667  0.83333333  0.00000000  1
  V  V1273  1  0.66666667  0.83333333  0.08333333  1
  V  V1274  1  0.66666667  0.83333333  0.16666667  1
  V  V1275  1  0.66666667  0.83333333  0.25000000  1
  V  V1276  1  0.66666667  0.83333333  0.33333333  1
  V  V1277  1  0.66666667  0.83333333  0.41666667  1
  Cr  Cr1278  1  0.66666667  0.83333333  0.50000000  1
  V  V1279  1  0.66666667  0.83333333  0.58333333  1
  Zr  Zr1280  1  0.66666667  0.83333333  0.66666667  1
  V  V1281  1  0.66666667  0.83333333  0.75000000  1
  Zr  Zr1282  1  0.66666667  0.83333333  0.83333333  1
  V  V1283  1  0.66666667  0.83333333  0.91666667  1
  Zr  Zr1284  1  0.66666667  0.91666667  1.00000000  1
  Ti  Ti1285  1  0.66666667  0.91666667  0.08333333  1
  V  V1286  1  0.66666667  0.91666667  0.16666667  1
  V  V1287  1  0.66666667  0.91666667  0.25000000  1
  W  W1288  1  0.66666667  0.91666667  0.33333333  1
  V  V1289  1  0.66666667  0.91666667  0.41666667  1
  V  V1290  1  0.66666667  0.91666667  0.50000000  1
  Ti  Ti1291  1  0.66666667  0.91666667  0.58333333  1
  V  V1292  1  0.66666667  0.91666667  0.66666667  1
  V  V1293  1  0.66666667  0.91666667  0.75000000  1
  Ti  Ti1294  1  0.66666667  0.91666667  0.83333333  1
  V  V1295  1  0.66666667  0.91666667  0.91666667  1
  Ti  Ti1296  1  0.75000000  0.00000000  0.00000000  1
  V  V1297  1  0.75000000  0.00000000  0.08333333  1
  V  V1298  1  0.75000000  0.00000000  0.16666667  1
  Cr  Cr1299  1  0.75000000  0.00000000  0.25000000  1
  Ti  Ti1300  1  0.75000000  0.00000000  0.33333333  1
  V  V1301  1  0.75000000  0.00000000  0.41666667  1
  Cr  Cr1302  1  0.75000000  0.00000000  0.50000000  1
  V  V1303  1  0.75000000  0.00000000  0.58333333  1
  Zr  Zr1304  1  0.75000000  0.00000000  0.66666667  1
  V  V1305  1  0.75000000  0.00000000  0.75000000  1
  Ti  Ti1306  1  0.75000000  0.00000000  0.83333333  1
  V  V1307  1  0.75000000  0.00000000  0.91666667  1
  W  W1308  1  0.75000000  0.08333333  0.00000000  1
  Zr  Zr1309  1  0.75000000  0.08333333  0.08333333  1
  Zr  Zr1310  1  0.75000000  0.08333333  0.16666667  1
  V  V1311  1  0.75000000  0.08333333  0.25000000  1
  V  V1312  1  0.75000000  0.08333333  0.33333333  1
  Zr  Zr1313  1  0.75000000  0.08333333  0.41666667  1
  Ti  Ti1314  1  0.75000000  0.08333333  0.50000000  1
  V  V1315  1  0.75000000  0.08333333  0.58333333  1
  V  V1316  1  0.75000000  0.08333333  0.66666667  1
  V  V1317  1  0.75000000  0.08333333  0.75000000  1
  V  V1318  1  0.75000000  0.08333333  0.83333333  1
  V  V1319  1  0.75000000  0.08333333  0.91666667  1
  V  V1320  1  0.75000000  0.16666667  0.00000000  1
  V  V1321  1  0.75000000  0.16666667  0.08333333  1
  V  V1322  1  0.75000000  0.16666667  0.16666667  1
  Cr  Cr1323  1  0.75000000  0.16666667  0.25000000  1
  V  V1324  1  0.75000000  0.16666667  0.33333333  1
  V  V1325  1  0.75000000  0.16666667  0.41666667  1
  V  V1326  1  0.75000000  0.16666667  0.50000000  1
  V  V1327  1  0.75000000  0.16666667  0.58333333  1
  V  V1328  1  0.75000000  0.16666667  0.66666667  1
  V  V1329  1  0.75000000  0.16666667  0.75000000  1
  V  V1330  1  0.75000000  0.16666667  0.83333333  1
  V  V1331  1  0.75000000  0.16666667  0.91666667  1
  V  V1332  1  0.75000000  0.25000000  0.00000000  1
  W  W1333  1  0.75000000  0.25000000  0.08333333  1
  V  V1334  1  0.75000000  0.25000000  0.16666667  1
  V  V1335  1  0.75000000  0.25000000  0.25000000  1
  V  V1336  1  0.75000000  0.25000000  0.33333333  1
  Zr  Zr1337  1  0.75000000  0.25000000  0.41666667  1
  V  V1338  1  0.75000000  0.25000000  0.50000000  1
  V  V1339  1  0.75000000  0.25000000  0.58333333  1
  Ti  Ti1340  1  0.75000000  0.25000000  0.66666667  1
  V  V1341  1  0.75000000  0.25000000  0.75000000  1
  Zr  Zr1342  1  0.75000000  0.25000000  0.83333333  1
  Zr  Zr1343  1  0.75000000  0.25000000  0.91666667  1
  Zr  Zr1344  1  0.75000000  0.33333333  0.00000000  1
  V  V1345  1  0.75000000  0.33333333  0.08333333  1
  V  V1346  1  0.75000000  0.33333333  0.16666667  1
  W  W1347  1  0.75000000  0.33333333  0.25000000  1
  V  V1348  1  0.75000000  0.33333333  0.33333333  1
  V  V1349  1  0.75000000  0.33333333  0.41666667  1
  V  V1350  1  0.75000000  0.33333333  0.50000000  1
  V  V1351  1  0.75000000  0.33333333  0.58333333  1
  Cr  Cr1352  1  0.75000000  0.33333333  0.66666667  1
  V  V1353  1  0.75000000  0.33333333  0.75000000  1
  V  V1354  1  0.75000000  0.33333333  0.83333333  1
  V  V1355  1  0.75000000  0.33333333  0.91666667  1
  W  W1356  1  0.75000000  0.41666667  0.00000000  1
  V  V1357  1  0.75000000  0.41666667  0.08333333  1
  V  V1358  1  0.75000000  0.41666667  0.16666667  1
  V  V1359  1  0.75000000  0.41666667  0.25000000  1
  Cr  Cr1360  1  0.75000000  0.41666667  0.33333333  1
  V  V1361  1  0.75000000  0.41666667  0.41666667  1
  V  V1362  1  0.75000000  0.41666667  0.50000000  1
  V  V1363  1  0.75000000  0.41666667  0.58333333  1
  V  V1364  1  0.75000000  0.41666667  0.66666667  1
  V  V1365  1  0.75000000  0.41666667  0.75000000  1
  V  V1366  1  0.75000000  0.41666667  0.83333333  1
  Zr  Zr1367  1  0.75000000  0.41666667  0.91666667  1
  V  V1368  1  0.75000000  0.50000000  0.00000000  1
  V  V1369  1  0.75000000  0.50000000  0.08333333  1
  V  V1370  1  0.75000000  0.50000000  0.16666667  1
  V  V1371  1  0.75000000  0.50000000  0.25000000  1
  Ti  Ti1372  1  0.75000000  0.50000000  0.33333333  1
  V  V1373  1  0.75000000  0.50000000  0.41666667  1
  Cr  Cr1374  1  0.75000000  0.50000000  0.50000000  1
  V  V1375  1  0.75000000  0.50000000  0.58333333  1
  V  V1376  1  0.75000000  0.50000000  0.66666667  1
  V  V1377  1  0.75000000  0.50000000  0.75000000  1
  V  V1378  1  0.75000000  0.50000000  0.83333333  1
  V  V1379  1  0.75000000  0.50000000  0.91666667  1
  V  V1380  1  0.75000000  0.58333333  0.00000000  1
  V  V1381  1  0.75000000  0.58333333  0.08333333  1
  W  W1382  1  0.75000000  0.58333333  0.16666667  1
  V  V1383  1  0.75000000  0.58333333  0.25000000  1
  W  W1384  1  0.75000000  0.58333333  0.33333333  1
  Cr  Cr1385  1  0.75000000  0.58333333  0.41666667  1
  W  W1386  1  0.75000000  0.58333333  0.50000000  1
  Cr  Cr1387  1  0.75000000  0.58333333  0.58333333  1
  V  V1388  1  0.75000000  0.58333333  0.66666667  1
  W  W1389  1  0.75000000  0.58333333  0.75000000  1
  V  V1390  1  0.75000000  0.58333333  0.83333333  1
  Cr  Cr1391  1  0.75000000  0.58333333  0.91666667  1
  V  V1392  1  0.75000000  0.66666667  0.00000000  1
  V  V1393  1  0.75000000  0.66666667  0.08333333  1
  V  V1394  1  0.75000000  0.66666667  0.16666667  1
  V  V1395  1  0.75000000  0.66666667  0.25000000  1
  V  V1396  1  0.75000000  0.66666667  0.33333333  1
  V  V1397  1  0.75000000  0.66666667  0.41666667  1
  Cr  Cr1398  1  0.75000000  0.66666667  0.50000000  1
  Zr  Zr1399  1  0.75000000  0.66666667  0.58333333  1
  V  V1400  1  0.75000000  0.66666667  0.66666667  1
  Zr  Zr1401  1  0.75000000  0.66666667  0.75000000  1
  V  V1402  1  0.75000000  0.66666667  0.83333333  1
  V  V1403  1  0.75000000  0.66666667  0.91666667  1
  V  V1404  1  0.75000000  0.75000000  1.00000000  1
  Zr  Zr1405  1  0.75000000  0.75000000  0.08333333  1
  Cr  Cr1406  1  0.75000000  0.75000000  0.16666667  1
  V  V1407  1  0.75000000  0.75000000  0.25000000  1
  Ti  Ti1408  1  0.75000000  0.75000000  0.33333333  1
  Zr  Zr1409  1  0.75000000  0.75000000  0.41666667  1
  V  V1410  1  0.75000000  0.75000000  0.50000000  1
  Zr  Zr1411  1  0.75000000  0.75000000  0.58333333  1
  V  V1412  1  0.75000000  0.75000000  0.66666667  1
  Cr  Cr1413  1  0.75000000  0.75000000  0.75000000  1
  V  V1414  1  0.75000000  0.75000000  0.83333333  1
  Cr  Cr1415  1  0.75000000  0.75000000  0.91666667  1
  Ti  Ti1416  1  0.75000000  0.83333333  1.00000000  1
  V  V1417  1  0.75000000  0.83333333  0.08333333  1
  W  W1418  1  0.75000000  0.83333333  0.16666667  1
  Ti  Ti1419  1  0.75000000  0.83333333  0.25000000  1
  Cr  Cr1420  1  0.75000000  0.83333333  0.33333333  1
  Zr  Zr1421  1  0.75000000  0.83333333  0.41666667  1
  Cr  Cr1422  1  0.75000000  0.83333333  0.50000000  1
  V  V1423  1  0.75000000  0.83333333  0.58333333  1
  Zr  Zr1424  1  0.75000000  0.83333333  0.66666667  1
  V  V1425  1  0.75000000  0.83333333  0.75000000  1
  V  V1426  1  0.75000000  0.83333333  0.83333333  1
  V  V1427  1  0.75000000  0.83333333  0.91666667  1
  Zr  Zr1428  1  0.75000000  0.91666667  0.00000000  1
  Cr  Cr1429  1  0.75000000  0.91666667  0.08333333  1
  V  V1430  1  0.75000000  0.91666667  0.16666667  1
  W  W1431  1  0.75000000  0.91666667  0.25000000  1
  V  V1432  1  0.75000000  0.91666667  0.33333333  1
  Zr  Zr1433  1  0.75000000  0.91666667  0.41666667  1
  W  W1434  1  0.75000000  0.91666667  0.50000000  1
  V  V1435  1  0.75000000  0.91666667  0.58333333  1
  W  W1436  1  0.75000000  0.91666667  0.66666667  1
  W  W1437  1  0.75000000  0.91666667  0.75000000  1
  V  V1438  1  0.75000000  0.91666667  0.83333333  1
  Zr  Zr1439  1  0.75000000  0.91666667  0.91666667  1
  V  V1440  1  0.83333333  0.00000000  1.00000000  1
  V  V1441  1  0.83333333  0.00000000  0.08333333  1
  V  V1442  1  0.83333333  0.00000000  0.16666667  1
  V  V1443  1  0.83333333  0.00000000  0.25000000  1
  V  V1444  1  0.83333333  0.00000000  0.33333333  1
  Cr  Cr1445  1  0.83333333  0.00000000  0.41666667  1
  V  V1446  1  0.83333333  0.00000000  0.50000000  1
  V  V1447  1  0.83333333  0.00000000  0.58333333  1
  V  V1448  1  0.83333333  0.00000000  0.66666667  1
  Cr  Cr1449  1  0.83333333  0.00000000  0.75000000  1
  V  V1450  1  0.83333333  0.00000000  0.83333333  1
  V  V1451  1  0.83333333  0.00000000  0.91666667  1
  V  V1452  1  0.83333333  0.08333333  1.00000000  1
  V  V1453  1  0.83333333  0.08333333  0.08333333  1
  Zr  Zr1454  1  0.83333333  0.08333333  0.16666667  1
  V  V1455  1  0.83333333  0.08333333  0.25000000  1
  V  V1456  1  0.83333333  0.08333333  0.33333333  1
  Ti  Ti1457  1  0.83333333  0.08333333  0.41666667  1
  V  V1458  1  0.83333333  0.08333333  0.50000000  1
  V  V1459  1  0.83333333  0.08333333  0.58333333  1
  V  V1460  1  0.83333333  0.08333333  0.66666667  1
  V  V1461  1  0.83333333  0.08333333  0.75000000  1
  V  V1462  1  0.83333333  0.08333333  0.83333333  1
  V  V1463  1  0.83333333  0.08333333  0.91666667  1
  Cr  Cr1464  1  0.83333333  0.16666667  1.00000000  1
  W  W1465  1  0.83333333  0.16666667  0.08333333  1
  Cr  Cr1466  1  0.83333333  0.16666667  0.16666667  1
  V  V1467  1  0.83333333  0.16666667  0.25000000  1
  Ti  Ti1468  1  0.83333333  0.16666667  0.33333333  1
  V  V1469  1  0.83333333  0.16666667  0.41666667  1
  Zr  Zr1470  1  0.83333333  0.16666667  0.50000000  1
  Zr  Zr1471  1  0.83333333  0.16666667  0.58333333  1
  W  W1472  1  0.83333333  0.16666667  0.66666667  1
  V  V1473  1  0.83333333  0.16666667  0.75000000  1
  Ti  Ti1474  1  0.83333333  0.16666667  0.83333333  1
  W  W1475  1  0.83333333  0.16666667  0.91666667  1
  Cr  Cr1476  1  0.83333333  0.25000000  0.00000000  1
  Zr  Zr1477  1  0.83333333  0.25000000  0.08333333  1
  V  V1478  1  0.83333333  0.25000000  0.16666667  1
  V  V1479  1  0.83333333  0.25000000  0.25000000  1
  V  V1480  1  0.83333333  0.25000000  0.33333333  1
  V  V1481  1  0.83333333  0.25000000  0.41666667  1
  W  W1482  1  0.83333333  0.25000000  0.50000000  1
  V  V1483  1  0.83333333  0.25000000  0.58333333  1
  Cr  Cr1484  1  0.83333333  0.25000000  0.66666667  1
  V  V1485  1  0.83333333  0.25000000  0.75000000  1
  V  V1486  1  0.83333333  0.25000000  0.83333333  1
  Zr  Zr1487  1  0.83333333  0.25000000  0.91666667  1
  V  V1488  1  0.83333333  0.33333333  1.00000000  1
  W  W1489  1  0.83333333  0.33333333  0.08333333  1
  W  W1490  1  0.83333333  0.33333333  0.16666667  1
  V  V1491  1  0.83333333  0.33333333  0.25000000  1
  V  V1492  1  0.83333333  0.33333333  0.33333333  1
  V  V1493  1  0.83333333  0.33333333  0.41666667  1
  V  V1494  1  0.83333333  0.33333333  0.50000000  1
  V  V1495  1  0.83333333  0.33333333  0.58333333  1
  Cr  Cr1496  1  0.83333333  0.33333333  0.66666667  1
  V  V1497  1  0.83333333  0.33333333  0.75000000  1
  V  V1498  1  0.83333333  0.33333333  0.83333333  1
  Ti  Ti1499  1  0.83333333  0.33333333  0.91666667  1
  V  V1500  1  0.83333333  0.41666667  0.00000000  1
  W  W1501  1  0.83333333  0.41666667  0.08333333  1
  V  V1502  1  0.83333333  0.41666667  0.16666667  1
  V  V1503  1  0.83333333  0.41666667  0.25000000  1
  Zr  Zr1504  1  0.83333333  0.41666667  0.33333333  1
  Cr  Cr1505  1  0.83333333  0.41666667  0.41666667  1
  W  W1506  1  0.83333333  0.41666667  0.50000000  1
  V  V1507  1  0.83333333  0.41666667  0.58333333  1
  V  V1508  1  0.83333333  0.41666667  0.66666667  1
  V  V1509  1  0.83333333  0.41666667  0.75000000  1
  V  V1510  1  0.83333333  0.41666667  0.83333333  1
  Zr  Zr1511  1  0.83333333  0.41666667  0.91666667  1
  V  V1512  1  0.83333333  0.50000000  0.00000000  1
  Cr  Cr1513  1  0.83333333  0.50000000  0.08333333  1
  V  V1514  1  0.83333333  0.50000000  0.16666667  1
  W  W1515  1  0.83333333  0.50000000  0.25000000  1
  Ti  Ti1516  1  0.83333333  0.50000000  0.33333333  1
  Cr  Cr1517  1  0.83333333  0.50000000  0.41666667  1
  V  V1518  1  0.83333333  0.50000000  0.50000000  1
  V  V1519  1  0.83333333  0.50000000  0.58333333  1
  Cr  Cr1520  1  0.83333333  0.50000000  0.66666667  1
  Zr  Zr1521  1  0.83333333  0.50000000  0.75000000  1
  Zr  Zr1522  1  0.83333333  0.50000000  0.83333333  1
  W  W1523  1  0.83333333  0.50000000  0.91666667  1
  V  V1524  1  0.83333333  0.58333333  1.00000000  1
  V  V1525  1  0.83333333  0.58333333  0.08333333  1
  Ti  Ti1526  1  0.83333333  0.58333333  0.16666667  1
  V  V1527  1  0.83333333  0.58333333  0.25000000  1
  V  V1528  1  0.83333333  0.58333333  0.33333333  1
  V  V1529  1  0.83333333  0.58333333  0.41666667  1
  V  V1530  1  0.83333333  0.58333333  0.50000000  1
  V  V1531  1  0.83333333  0.58333333  0.58333333  1
  V  V1532  1  0.83333333  0.58333333  0.66666667  1
  V  V1533  1  0.83333333  0.58333333  0.75000000  1
  V  V1534  1  0.83333333  0.58333333  0.83333333  1
  V  V1535  1  0.83333333  0.58333333  0.91666667  1
  Cr  Cr1536  1  0.83333333  0.66666667  1.00000000  1
  V  V1537  1  0.83333333  0.66666667  0.08333333  1
  Cr  Cr1538  1  0.83333333  0.66666667  0.16666667  1
  W  W1539  1  0.83333333  0.66666667  0.25000000  1
  V  V1540  1  0.83333333  0.66666667  0.33333333  1
  Ti  Ti1541  1  0.83333333  0.66666667  0.41666667  1
  V  V1542  1  0.83333333  0.66666667  0.50000000  1
  Zr  Zr1543  1  0.83333333  0.66666667  0.58333333  1
  V  V1544  1  0.83333333  0.66666667  0.66666667  1
  Cr  Cr1545  1  0.83333333  0.66666667  0.75000000  1
  V  V1546  1  0.83333333  0.66666667  0.83333333  1
  V  V1547  1  0.83333333  0.66666667  0.91666667  1
  V  V1548  1  0.83333333  0.75000000  1.00000000  1
  Ti  Ti1549  1  0.83333333  0.75000000  0.08333333  1
  V  V1550  1  0.83333333  0.75000000  0.16666667  1
  Zr  Zr1551  1  0.83333333  0.75000000  0.25000000  1
  Cr  Cr1552  1  0.83333333  0.75000000  0.33333333  1
  V  V1553  1  0.83333333  0.75000000  0.41666667  1
  Ti  Ti1554  1  0.83333333  0.75000000  0.50000000  1
  V  V1555  1  0.83333333  0.75000000  0.58333333  1
  V  V1556  1  0.83333333  0.75000000  0.66666667  1
  V  V1557  1  0.83333333  0.75000000  0.75000000  1
  V  V1558  1  0.83333333  0.75000000  0.83333333  1
  W  W1559  1  0.83333333  0.75000000  0.91666667  1
  Ti  Ti1560  1  0.83333333  0.83333333  1.00000000  1
  Ti  Ti1561  1  0.83333333  0.83333333  0.08333333  1
  V  V1562  1  0.83333333  0.83333333  0.16666667  1
  V  V1563  1  0.83333333  0.83333333  0.25000000  1
  V  V1564  1  0.83333333  0.83333333  0.33333333  1
  Ti  Ti1565  1  0.83333333  0.83333333  0.41666667  1
  V  V1566  1  0.83333333  0.83333333  0.50000000  1
  V  V1567  1  0.83333333  0.83333333  0.58333333  1
  V  V1568  1  0.83333333  0.83333333  0.66666667  1
  V  V1569  1  0.83333333  0.83333333  0.75000000  1
  W  W1570  1  0.83333333  0.83333333  0.83333333  1
  Zr  Zr1571  1  0.83333333  0.83333333  0.91666667  1
  V  V1572  1  0.83333333  0.91666667  1.00000000  1
  V  V1573  1  0.83333333  0.91666667  0.08333333  1
  V  V1574  1  0.83333333  0.91666667  0.16666667  1
  Zr  Zr1575  1  0.83333333  0.91666667  0.25000000  1
  Ti  Ti1576  1  0.83333333  0.91666667  0.33333333  1
  V  V1577  1  0.83333333  0.91666667  0.41666667  1
  Cr  Cr1578  1  0.83333333  0.91666667  0.50000000  1
  V  V1579  1  0.83333333  0.91666667  0.58333333  1
  V  V1580  1  0.83333333  0.91666667  0.66666667  1
  W  W1581  1  0.83333333  0.91666667  0.75000000  1
  W  W1582  1  0.83333333  0.91666667  0.83333333  1
  Zr  Zr1583  1  0.83333333  0.91666667  0.91666667  1
  V  V1584  1  0.91666667  0.00000000  0.00000000  1
  Cr  Cr1585  1  0.91666667  0.00000000  0.08333333  1
  Cr  Cr1586  1  0.91666667  0.00000000  0.16666667  1
  V  V1587  1  0.91666667  0.00000000  0.25000000  1
  V  V1588  1  0.91666667  0.00000000  0.33333333  1
  V  V1589  1  0.91666667  0.00000000  0.41666667  1
  Ti  Ti1590  1  0.91666667  0.00000000  0.50000000  1
  Cr  Cr1591  1  0.91666667  0.00000000  0.58333333  1
  Zr  Zr1592  1  0.91666667  0.00000000  0.66666667  1
  V  V1593  1  0.91666667  0.00000000  0.75000000  1
  Cr  Cr1594  1  0.91666667  0.00000000  0.83333333  1
  V  V1595  1  0.91666667  0.00000000  0.91666667  1
  V  V1596  1  0.91666667  0.08333333  1.00000000  1
  V  V1597  1  0.91666667  0.08333333  0.08333333  1
  W  W1598  1  0.91666667  0.08333333  0.16666667  1
  V  V1599  1  0.91666667  0.08333333  0.25000000  1
  V  V1600  1  0.91666667  0.08333333  0.33333333  1
  W  W1601  1  0.91666667  0.08333333  0.41666667  1
  Zr  Zr1602  1  0.91666667  0.08333333  0.50000000  1
  W  W1603  1  0.91666667  0.08333333  0.58333333  1
  W  W1604  1  0.91666667  0.08333333  0.66666667  1
  Cr  Cr1605  1  0.91666667  0.08333333  0.75000000  1
  V  V1606  1  0.91666667  0.08333333  0.83333333  1
  V  V1607  1  0.91666667  0.08333333  0.91666667  1
  V  V1608  1  0.91666667  0.16666667  0.00000000  1
  V  V1609  1  0.91666667  0.16666667  0.08333333  1
  V  V1610  1  0.91666667  0.16666667  0.16666667  1
  Zr  Zr1611  1  0.91666667  0.16666667  0.25000000  1
  V  V1612  1  0.91666667  0.16666667  0.33333333  1
  V  V1613  1  0.91666667  0.16666667  0.41666667  1
  V  V1614  1  0.91666667  0.16666667  0.50000000  1
  V  V1615  1  0.91666667  0.16666667  0.58333333  1
  V  V1616  1  0.91666667  0.16666667  0.66666667  1
  V  V1617  1  0.91666667  0.16666667  0.75000000  1
  V  V1618  1  0.91666667  0.16666667  0.83333333  1
  Cr  Cr1619  1  0.91666667  0.16666667  0.91666667  1
  Ti  Ti1620  1  0.91666667  0.25000000  0.00000000  1
  Ti  Ti1621  1  0.91666667  0.25000000  0.08333333  1
  Ti  Ti1622  1  0.91666667  0.25000000  0.16666667  1
  W  W1623  1  0.91666667  0.25000000  0.25000000  1
  Zr  Zr1624  1  0.91666667  0.25000000  0.33333333  1
  V  V1625  1  0.91666667  0.25000000  0.41666667  1
  V  V1626  1  0.91666667  0.25000000  0.50000000  1
  Cr  Cr1627  1  0.91666667  0.25000000  0.58333333  1
  V  V1628  1  0.91666667  0.25000000  0.66666667  1
  V  V1629  1  0.91666667  0.25000000  0.75000000  1
  Zr  Zr1630  1  0.91666667  0.25000000  0.83333333  1
  V  V1631  1  0.91666667  0.25000000  0.91666667  1
  Zr  Zr1632  1  0.91666667  0.33333333  1.00000000  1
  W  W1633  1  0.91666667  0.33333333  0.08333333  1
  Ti  Ti1634  1  0.91666667  0.33333333  0.16666667  1
  V  V1635  1  0.91666667  0.33333333  0.25000000  1
  W  W1636  1  0.91666667  0.33333333  0.33333333  1
  V  V1637  1  0.91666667  0.33333333  0.41666667  1
  Ti  Ti1638  1  0.91666667  0.33333333  0.50000000  1
  V  V1639  1  0.91666667  0.33333333  0.58333333  1
  V  V1640  1  0.91666667  0.33333333  0.66666667  1
  V  V1641  1  0.91666667  0.33333333  0.75000000  1
  Ti  Ti1642  1  0.91666667  0.33333333  0.83333333  1
  W  W1643  1  0.91666667  0.33333333  0.91666667  1
  V  V1644  1  0.91666667  0.41666667  0.00000000  1
  V  V1645  1  0.91666667  0.41666667  0.08333333  1
  W  W1646  1  0.91666667  0.41666667  0.16666667  1
  Zr  Zr1647  1  0.91666667  0.41666667  0.25000000  1
  V  V1648  1  0.91666667  0.41666667  0.33333333  1
  Zr  Zr1649  1  0.91666667  0.41666667  0.41666667  1
  Ti  Ti1650  1  0.91666667  0.41666667  0.50000000  1
  V  V1651  1  0.91666667  0.41666667  0.58333333  1
  V  V1652  1  0.91666667  0.41666667  0.66666667  1
  W  W1653  1  0.91666667  0.41666667  0.75000000  1
  V  V1654  1  0.91666667  0.41666667  0.83333333  1
  V  V1655  1  0.91666667  0.41666667  0.91666667  1
  V  V1656  1  0.91666667  0.50000000  0.00000000  1
  Zr  Zr1657  1  0.91666667  0.50000000  0.08333333  1
  Ti  Ti1658  1  0.91666667  0.50000000  0.16666667  1
  V  V1659  1  0.91666667  0.50000000  0.25000000  1
  Zr  Zr1660  1  0.91666667  0.50000000  0.33333333  1
  Cr  Cr1661  1  0.91666667  0.50000000  0.41666667  1
  V  V1662  1  0.91666667  0.50000000  0.50000000  1
  V  V1663  1  0.91666667  0.50000000  0.58333333  1
  Ti  Ti1664  1  0.91666667  0.50000000  0.66666667  1
  Cr  Cr1665  1  0.91666667  0.50000000  0.75000000  1
  V  V1666  1  0.91666667  0.50000000  0.83333333  1
  W  W1667  1  0.91666667  0.50000000  0.91666667  1
  V  V1668  1  0.91666667  0.58333333  0.00000000  1
  V  V1669  1  0.91666667  0.58333333  0.08333333  1
  V  V1670  1  0.91666667  0.58333333  0.16666667  1
  Ti  Ti1671  1  0.91666667  0.58333333  0.25000000  1
  V  V1672  1  0.91666667  0.58333333  0.33333333  1
  V  V1673  1  0.91666667  0.58333333  0.41666667  1
  V  V1674  1  0.91666667  0.58333333  0.50000000  1
  Ti  Ti1675  1  0.91666667  0.58333333  0.58333333  1
  V  V1676  1  0.91666667  0.58333333  0.66666667  1
  W  W1677  1  0.91666667  0.58333333  0.75000000  1
  V  V1678  1  0.91666667  0.58333333  0.83333333  1
  V  V1679  1  0.91666667  0.58333333  0.91666667  1
  Zr  Zr1680  1  0.91666667  0.66666667  1.00000000  1
  Zr  Zr1681  1  0.91666667  0.66666667  0.08333333  1
  V  V1682  1  0.91666667  0.66666667  0.16666667  1
  Ti  Ti1683  1  0.91666667  0.66666667  0.25000000  1
  W  W1684  1  0.91666667  0.66666667  0.33333333  1
  W  W1685  1  0.91666667  0.66666667  0.41666667  1
  Ti  Ti1686  1  0.91666667  0.66666667  0.50000000  1
  V  V1687  1  0.91666667  0.66666667  0.58333333  1
  Zr  Zr1688  1  0.91666667  0.66666667  0.66666667  1
  V  V1689  1  0.91666667  0.66666667  0.75000000  1
  V  V1690  1  0.91666667  0.66666667  0.83333333  1
  Cr  Cr1691  1  0.91666667  0.66666667  0.91666667  1
  V  V1692  1  0.91666667  0.75000000  1.00000000  1
  V  V1693  1  0.91666667  0.75000000  0.08333333  1
  V  V1694  1  0.91666667  0.75000000  0.16666667  1
  V  V1695  1  0.91666667  0.75000000  0.25000000  1
  V  V1696  1  0.91666667  0.75000000  0.33333333  1
  V  V1697  1  0.91666667  0.75000000  0.41666667  1
  V  V1698  1  0.91666667  0.75000000  0.50000000  1
  V  V1699  1  0.91666667  0.75000000  0.58333333  1
  V  V1700  1  0.91666667  0.75000000  0.66666667  1
  W  W1701  1  0.91666667  0.75000000  0.75000000  1
  V  V1702  1  0.91666667  0.75000000  0.83333333  1
  Cr  Cr1703  1  0.91666667  0.75000000  0.91666667  1
  V  V1704  1  0.91666667  0.83333333  1.00000000  1
  V  V1705  1  0.91666667  0.83333333  0.08333333  1
  Zr  Zr1706  1  0.91666667  0.83333333  0.16666667  1
  V  V1707  1  0.91666667  0.83333333  0.25000000  1
  V  V1708  1  0.91666667  0.83333333  0.33333333  1
  V  V1709  1  0.91666667  0.83333333  0.41666667  1
  V  V1710  1  0.91666667  0.83333333  0.50000000  1
  V  V1711  1  0.91666667  0.83333333  0.58333333  1
  V  V1712  1  0.91666667  0.83333333  0.66666667  1
  V  V1713  1  0.91666667  0.83333333  0.75000000  1
  V  V1714  1  0.91666667  0.83333333  0.83333333  1
  V  V1715  1  0.91666667  0.83333333  0.91666667  1
  V  V1716  1  0.91666667  0.91666667  1.00000000  1
  V  V1717  1  0.91666667  0.91666667  0.08333333  1
  V  V1718  1  0.91666667  0.91666667  0.16666667  1
  V  V1719  1  0.91666667  0.91666667  0.25000000  1
  V  V1720  1  0.91666667  0.91666667  0.33333333  1
  V  V1721  1  0.91666667  0.91666667  0.41666667  1
  W  W1722  1  0.91666667  0.91666667  0.50000000  1
  V  V1723  1  0.91666667  0.91666667  0.58333333  1
  V  V1724  1  0.91666667  0.91666667  0.66666667  1
  Ti  Ti1725  1  0.91666667  0.91666667  0.75000000  1
  V  V1726  1  0.91666667  0.91666667  0.83333333  1
  V  V1727  1  0.91666667  0.91666667  0.91666667  1
