# generated using pymatgen
data_Zr189Ti107V1056(CrW)188
_symmetry_space_group_name_H-M   'P 1'
_cell_length_a   31.28083764
_cell_length_b   31.28083764
_cell_length_c   31.28083764
_cell_angle_alpha   109.47122063
_cell_angle_beta   109.47122063
_cell_angle_gamma   109.47122063
_symmetry_Int_Tables_number   1
_chemical_formula_structural   Zr189Ti107V1056(CrW)188
_chemical_formula_sum   'Zr189 Ti107 V1056 Cr188 W188'
_cell_volume   23562.05859289
_cell_formula_units_Z   1
loop_
 _symmetry_equiv_pos_site_id
 _symmetry_equiv_pos_as_xyz
  1  'x, y, z'
loop_
 _atom_site_type_symbol
 _atom_site_label
 _atom_site_symmetry_multiplicity
 _atom_site_fract_x
 _atom_site_fract_y
 _atom_site_fract_z
 _atom_site_occupancy
  Ti  Ti0  1  0.00000000  0.00000000  0.00000000  1
  Zr  Zr1  1  0.00000000  0.00000000  0.08333333  1
  Zr  Zr2  1  0.00000000  0.00000000  0.16666667  1
  Zr  Zr3  1  0.00000000  0.00000000  0.25000000  1
  Ti  Ti4  1  0.00000000  0.00000000  0.33333333  1
  V  V5  1  0.00000000  0.00000000  0.41666667  1
  V  V6  1  0.00000000  0.00000000  0.50000000  1
  V  V7  1  0.00000000  0.00000000  0.58333333  1
  V  V8  1  0.00000000  0.00000000  0.66666667  1
  W  W9  1  0.00000000  0.00000000  0.75000000  1
  V  V10  1  0.00000000  0.00000000  0.83333333  1
  V  V11  1  0.00000000  0.00000000  0.91666667  1
  Ti  Ti12  1  0.00000000  0.08333333  0.00000000  1
  Zr  Zr13  1  0.00000000  0.08333333  0.08333333  1
  Zr  Zr14  1  0.00000000  0.08333333  0.16666667  1
  Zr  Zr15  1  0.00000000  0.08333333  0.25000000  1
  Zr  Zr16  1  0.00000000  0.08333333  0.33333333  1
  W  W17  1  0.00000000  0.08333333  0.41666667  1
  V  V18  1  0.00000000  0.08333333  0.50000000  1
  W  W19  1  0.00000000  0.08333333  0.58333333  1
  W  W20  1  0.00000000  0.08333333  0.66666667  1
  V  V21  1  0.00000000  0.08333333  0.75000000  1
  W  W22  1  0.00000000  0.08333333  0.83333333  1
  V  V23  1  0.00000000  0.08333333  0.91666667  1
  V  V24  1  0.00000000  0.16666667  0.00000000  1
  Zr  Zr25  1  0.00000000  0.16666667  0.08333333  1
  Zr  Zr26  1  0.00000000  0.16666667  0.16666667  1
  Zr  Zr27  1  0.00000000  0.16666667  0.25000000  1
  Ti  Ti28  1  0.00000000  0.16666667  0.33333333  1
  Ti  Ti29  1  0.00000000  0.16666667  0.41666667  1
  V  V30  1  0.00000000  0.16666667  0.50000000  1
  W  W31  1  0.00000000  0.16666667  0.58333333  1
  W  W32  1  0.00000000  0.16666667  0.66666667  1
  V  V33  1  0.00000000  0.16666667  0.75000000  1
  V  V34  1  0.00000000  0.16666667  0.83333333  1
  V  V35  1  0.00000000  0.16666667  0.91666667  1
  V  V36  1  0.00000000  0.25000000  0.00000000  1
  Ti  Ti37  1  0.00000000  0.25000000  0.08333333  1
  Zr  Zr38  1  0.00000000  0.25000000  0.16666667  1
  Zr  Zr39  1  0.00000000  0.25000000  0.25000000  1
  Zr  Zr40  1  0.00000000  0.25000000  0.33333333  1
  W  W41  1  0.00000000  0.25000000  0.41666667  1
  V  V42  1  0.00000000  0.25000000  0.50000000  1
  V  V43  1  0.00000000  0.25000000  0.58333333  1
  V  V44  1  0.00000000  0.25000000  0.66666667  1
  V  V45  1  0.00000000  0.25000000  0.75000000  1
  V  V46  1  0.00000000  0.25000000  0.83333333  1
  V  V47  1  0.00000000  0.25000000  0.91666667  1
  W  W48  1  0.00000000  0.33333333  0.00000000  1
  W  W49  1  0.00000000  0.33333333  0.08333333  1
  Ti  Ti50  1  0.00000000  0.33333333  0.16666667  1
  Ti  Ti51  1  0.00000000  0.33333333  0.25000000  1
  V  V52  1  0.00000000  0.33333333  0.33333333  1
  W  W53  1  0.00000000  0.33333333  0.41666667  1
  V  V54  1  0.00000000  0.33333333  0.50000000  1
  W  W55  1  0.00000000  0.33333333  0.58333333  1
  V  V56  1  0.00000000  0.33333333  0.66666667  1
  V  V57  1  0.00000000  0.33333333  0.75000000  1
  V  V58  1  0.00000000  0.33333333  0.83333333  1
  W  W59  1  0.00000000  0.33333333  0.91666667  1
  V  V60  1  0.00000000  0.41666667  0.00000000  1
  V  V61  1  0.00000000  0.41666667  0.08333333  1
  V  V62  1  0.00000000  0.41666667  0.16666667  1
  V  V63  1  0.00000000  0.41666667  0.25000000  1
  V  V64  1  0.00000000  0.41666667  0.33333333  1
  V  V65  1  0.00000000  0.41666667  0.41666667  1
  V  V66  1  0.00000000  0.41666667  0.50000000  1
  V  V67  1  0.00000000  0.41666667  0.58333333  1
  Cr  Cr68  1  0.00000000  0.41666667  0.66666667  1
  V  V69  1  0.00000000  0.41666667  0.75000000  1
  V  V70  1  0.00000000  0.41666667  0.83333333  1
  V  V71  1  0.00000000  0.41666667  0.91666667  1
  V  V72  1  0.00000000  0.50000000  0.00000000  1
  V  V73  1  0.00000000  0.50000000  0.08333333  1
  V  V74  1  0.00000000  0.50000000  0.16666667  1
  V  V75  1  0.00000000  0.50000000  0.25000000  1
  V  V76  1  0.00000000  0.50000000  0.33333333  1
  Cr  Cr77  1  0.00000000  0.50000000  0.41666667  1
  Cr  Cr78  1  0.00000000  0.50000000  0.50000000  1
  Cr  Cr79  1  0.00000000  0.50000000  0.58333333  1
  V  V80  1  0.00000000  0.50000000  0.66666667  1
  V  V81  1  0.00000000  0.50000000  0.75000000  1
  V  V82  1  0.00000000  0.50000000  0.83333333  1
  V  V83  1  0.00000000  0.50000000  0.91666667  1
  V  V84  1  0.00000000  0.58333333  0.00000000  1
  V  V85  1  0.00000000  0.58333333  0.08333333  1
  W  W86  1  0.00000000  0.58333333  0.16666667  1
  W  W87  1  0.00000000  0.58333333  0.25000000  1
  Cr  Cr88  1  0.00000000  0.58333333  0.33333333  1
  Cr  Cr89  1  0.00000000  0.58333333  0.41666667  1
  Cr  Cr90  1  0.00000000  0.58333333  0.50000000  1
  Cr  Cr91  1  0.00000000  0.58333333  0.58333333  1
  Cr  Cr92  1  0.00000000  0.58333333  0.66666667  1
  V  V93  1  0.00000000  0.58333333  0.75000000  1
  V  V94  1  0.00000000  0.58333333  0.83333333  1
  V  V95  1  0.00000000  0.58333333  0.91666667  1
  V  V96  1  1.00000000  0.66666667  1.00000000  1
  W  W97  1  1.00000000  0.66666667  0.08333333  1
  V  V98  1  1.00000000  0.66666667  0.16666667  1
  V  V99  1  1.00000000  0.66666667  0.25000000  1
  Cr  Cr100  1  1.00000000  0.66666667  0.33333333  1
  Cr  Cr101  1  1.00000000  0.66666667  0.41666667  1
  Cr  Cr102  1  1.00000000  0.66666667  0.50000000  1
  Cr  Cr103  1  1.00000000  0.66666667  0.58333333  1
  Cr  Cr104  1  1.00000000  0.66666667  0.66666667  1
  Cr  Cr105  1  1.00000000  0.66666667  0.75000000  1
  V  V106  1  1.00000000  0.66666667  0.83333333  1
  V  V107  1  1.00000000  0.66666667  0.91666667  1
  V  V108  1  1.00000000  0.75000000  1.00000000  1
  W  W109  1  1.00000000  0.75000000  0.08333333  1
  W  W110  1  1.00000000  0.75000000  0.16666667  1
  V  V111  1  1.00000000  0.75000000  0.25000000  1
  Cr  Cr112  1  1.00000000  0.75000000  0.33333333  1
  Cr  Cr113  1  1.00000000  0.75000000  0.41666667  1
  Cr  Cr114  1  1.00000000  0.75000000  0.50000000  1
  Cr  Cr115  1  1.00000000  0.75000000  0.58333333  1
  Cr  Cr116  1  1.00000000  0.75000000  0.66666667  1
  Cr  Cr117  1  1.00000000  0.75000000  0.75000000  1
  V  V118  1  1.00000000  0.75000000  0.83333333  1
  V  V119  1  1.00000000  0.75000000  0.91666667  1
  Ti  Ti120  1  1.00000000  0.83333333  1.00000000  1
  Zr  Zr121  1  1.00000000  0.83333333  0.08333333  1
  Ti  Ti122  1  1.00000000  0.83333333  0.16666667  1
  V  V123  1  1.00000000  0.83333333  0.25000000  1
  V  V124  1  1.00000000  0.83333333  0.33333333  1
  V  V125  1  1.00000000  0.83333333  0.41666667  1
  Cr  Cr126  1  1.00000000  0.83333333  0.50000000  1
  Cr  Cr127  1  1.00000000  0.83333333  0.58333333  1
  Cr  Cr128  1  1.00000000  0.83333333  0.66666667  1
  Cr  Cr129  1  1.00000000  0.83333333  0.75000000  1
  V  V130  1  1.00000000  0.83333333  0.83333333  1
  V  V131  1  1.00000000  0.83333333  0.91666667  1
  Ti  Ti132  1  1.00000000  0.91666667  1.00000000  1
  Zr  Zr133  1  1.00000000  0.91666667  0.08333333  1
  Zr  Zr134  1  1.00000000  0.91666667  0.16666667  1
  Ti  Ti135  1  1.00000000  0.91666667  0.25000000  1
  V  V136  1  1.00000000  0.91666667  0.33333333  1
  W  W137  1  1.00000000  0.91666667  0.41666667  1
  Cr  Cr138  1  1.00000000  0.91666667  0.50000000  1
  Cr  Cr139  1  1.00000000  0.91666667  0.58333333  1
  Cr  Cr140  1  1.00000000  0.91666667  0.66666667  1
  Cr  Cr141  1  1.00000000  0.91666667  0.75000000  1
  V  V142  1  1.00000000  0.91666667  0.83333333  1
  V  V143  1  1.00000000  0.91666667  0.91666667  1
  V  V144  1  0.08333333  0.00000000  0.00000000  1
  Ti  Ti145  1  0.08333333  0.00000000  0.08333333  1
  V  V146  1  0.08333333  0.00000000  0.16666667  1
  Ti  Ti147  1  0.08333333  0.00000000  0.25000000  1
  W  W148  1  0.08333333  0.00000000  0.33333333  1
  V  V149  1  0.08333333  0.00000000  0.41666667  1
  V  V150  1  0.08333333  0.00000000  0.50000000  1
  V  V151  1  0.08333333  0.00000000  0.58333333  1
  Cr  Cr152  1  0.08333333  0.00000000  0.66666667  1
  Cr  Cr153  1  0.08333333  0.00000000  0.75000000  1
  W  W154  1  0.08333333  0.00000000  0.83333333  1
  V  V155  1  0.08333333  0.00000000  0.91666667  1
  V  V156  1  0.08333333  0.08333333  0.00000000  1
  Ti  Ti157  1  0.08333333  0.08333333  0.08333333  1
  Ti  Ti158  1  0.08333333  0.08333333  0.16666667  1
  Ti  Ti159  1  0.08333333  0.08333333  0.25000000  1
  V  V160  1  0.08333333  0.08333333  0.33333333  1
  V  V161  1  0.08333333  0.08333333  0.41666667  1
  V  V162  1  0.08333333  0.08333333  0.50000000  1
  W  W163  1  0.08333333  0.08333333  0.58333333  1
  V  V164  1  0.08333333  0.08333333  0.66666667  1
  V  V165  1  0.08333333  0.08333333  0.75000000  1
  V  V166  1  0.08333333  0.08333333  0.83333333  1
  V  V167  1  0.08333333  0.08333333  0.91666667  1
  W  W168  1  0.08333333  0.16666667  0.00000000  1
  W  W169  1  0.08333333  0.16666667  0.08333333  1
  Ti  Ti170  1  0.08333333  0.16666667  0.16666667  1
  Ti  Ti171  1  0.08333333  0.16666667  0.25000000  1
  V  V172  1  0.08333333  0.16666667  0.33333333  1
  V  V173  1  0.08333333  0.16666667  0.41666667  1
  W  W174  1  0.08333333  0.16666667  0.50000000  1
  V  V175  1  0.08333333  0.16666667  0.58333333  1
  V  V176  1  0.08333333  0.16666667  0.66666667  1
  V  V177  1  0.08333333  0.16666667  0.75000000  1
  V  V178  1  0.08333333  0.16666667  0.83333333  1
  V  V179  1  0.08333333  0.16666667  0.91666667  1
  V  V180  1  0.08333333  0.25000000  0.00000000  1
  V  V181  1  0.08333333  0.25000000  0.08333333  1
  Ti  Ti182  1  0.08333333  0.25000000  0.16666667  1
  V  V183  1  0.08333333  0.25000000  0.25000000  1
  Ti  Ti184  1  0.08333333  0.25000000  0.33333333  1
  V  V185  1  0.08333333  0.25000000  0.41666667  1
  W  W186  1  0.08333333  0.25000000  0.50000000  1
  V  V187  1  0.08333333  0.25000000  0.58333333  1
  V  V188  1  0.08333333  0.25000000  0.66666667  1
  W  W189  1  0.08333333  0.25000000  0.75000000  1
  V  V190  1  0.08333333  0.25000000  0.83333333  1
  W  W191  1  0.08333333  0.25000000  0.91666667  1
  V  V192  1  0.08333333  0.33333333  0.00000000  1
  V  V193  1  0.08333333  0.33333333  0.08333333  1
  V  V194  1  0.08333333  0.33333333  0.16666667  1
  V  V195  1  0.08333333  0.33333333  0.25000000  1
  W  W196  1  0.08333333  0.33333333  0.33333333  1
  V  V197  1  0.08333333  0.33333333  0.41666667  1
  V  V198  1  0.08333333  0.33333333  0.50000000  1
  V  V199  1  0.08333333  0.33333333  0.58333333  1
  V  V200  1  0.08333333  0.33333333  0.66666667  1
  V  V201  1  0.08333333  0.33333333  0.75000000  1
  V  V202  1  0.08333333  0.33333333  0.83333333  1
  W  W203  1  0.08333333  0.33333333  0.91666667  1
  V  V204  1  0.08333333  0.41666667  0.00000000  1
  W  W205  1  0.08333333  0.41666667  0.08333333  1
  V  V206  1  0.08333333  0.41666667  0.16666667  1
  V  V207  1  0.08333333  0.41666667  0.25000000  1
  V  V208  1  0.08333333  0.41666667  0.33333333  1
  V  V209  1  0.08333333  0.41666667  0.41666667  1
  V  V210  1  0.08333333  0.41666667  0.50000000  1
  V  V211  1  0.08333333  0.41666667  0.58333333  1
  W  W212  1  0.08333333  0.41666667  0.66666667  1
  V  V213  1  0.08333333  0.41666667  0.75000000  1
  V  V214  1  0.08333333  0.41666667  0.83333333  1
  V  V215  1  0.08333333  0.41666667  0.91666667  1
  V  V216  1  0.08333333  0.50000000  0.00000000  1
  V  V217  1  0.08333333  0.50000000  0.08333333  1
  V  V218  1  0.08333333  0.50000000  0.16666667  1
  V  V219  1  0.08333333  0.50000000  0.25000000  1
  V  V220  1  0.08333333  0.50000000  0.33333333  1
  V  V221  1  0.08333333  0.50000000  0.41666667  1
  Cr  Cr222  1  0.08333333  0.50000000  0.50000000  1
  Cr  Cr223  1  0.08333333  0.50000000  0.58333333  1
  Cr  Cr224  1  0.08333333  0.50000000  0.66666667  1
  V  V225  1  0.08333333  0.50000000  0.75000000  1
  Cr  Cr226  1  0.08333333  0.50000000  0.83333333  1
  V  V227  1  0.08333333  0.50000000  0.91666667  1
  V  V228  1  0.08333333  0.58333333  0.00000000  1
  V  V229  1  0.08333333  0.58333333  0.08333333  1
  V  V230  1  0.08333333  0.58333333  0.16666667  1
  V  V231  1  0.08333333  0.58333333  0.25000000  1
  V  V232  1  0.08333333  0.58333333  0.33333333  1
  V  V233  1  0.08333333  0.58333333  0.41666667  1
  Cr  Cr234  1  0.08333333  0.58333333  0.50000000  1
  Cr  Cr235  1  0.08333333  0.58333333  0.58333333  1
  Cr  Cr236  1  0.08333333  0.58333333  0.66666667  1
  V  V237  1  0.08333333  0.58333333  0.75000000  1
  V  V238  1  0.08333333  0.58333333  0.83333333  1
  V  V239  1  0.08333333  0.58333333  0.91666667  1
  V  V240  1  0.08333333  0.66666667  1.00000000  1
  V  V241  1  0.08333333  0.66666667  0.08333333  1
  V  V242  1  0.08333333  0.66666667  0.16666667  1
  V  V243  1  0.08333333  0.66666667  0.25000000  1
  W  W244  1  0.08333333  0.66666667  0.33333333  1
  Cr  Cr245  1  0.08333333  0.66666667  0.41666667  1
  Cr  Cr246  1  0.08333333  0.66666667  0.50000000  1
  Cr  Cr247  1  0.08333333  0.66666667  0.58333333  1
  Cr  Cr248  1  0.08333333  0.66666667  0.66666667  1
  Cr  Cr249  1  0.08333333  0.66666667  0.75000000  1
  V  V250  1  0.08333333  0.66666667  0.83333333  1
  W  W251  1  0.08333333  0.66666667  0.91666667  1
  V  V252  1  0.08333333  0.75000000  1.00000000  1
  V  V253  1  0.08333333  0.75000000  0.08333333  1
  V  V254  1  0.08333333  0.75000000  0.16666667  1
  V  V255  1  0.08333333  0.75000000  0.25000000  1
  Cr  Cr256  1  0.08333333  0.75000000  0.33333333  1
  Cr  Cr257  1  0.08333333  0.75000000  0.41666667  1
  Cr  Cr258  1  0.08333333  0.75000000  0.50000000  1
  Cr  Cr259  1  0.08333333  0.75000000  0.58333333  1
  Cr  Cr260  1  0.08333333  0.75000000  0.66666667  1
  Cr  Cr261  1  0.08333333  0.75000000  0.75000000  1
  V  V262  1  0.08333333  0.75000000  0.83333333  1
  V  V263  1  0.08333333  0.75000000  0.91666667  1
  V  V264  1  0.08333333  0.83333333  1.00000000  1
  V  V265  1  0.08333333  0.83333333  0.08333333  1
  V  V266  1  0.08333333  0.83333333  0.16666667  1
  W  W267  1  0.08333333  0.83333333  0.25000000  1
  V  V268  1  0.08333333  0.83333333  0.33333333  1
  Cr  Cr269  1  0.08333333  0.83333333  0.41666667  1
  Cr  Cr270  1  0.08333333  0.83333333  0.50000000  1
  Cr  Cr271  1  0.08333333  0.83333333  0.58333333  1
  Cr  Cr272  1  0.08333333  0.83333333  0.66666667  1
  Cr  Cr273  1  0.08333333  0.83333333  0.75000000  1
  Cr  Cr274  1  0.08333333  0.83333333  0.83333333  1
  W  W275  1  0.08333333  0.83333333  0.91666667  1
  W  W276  1  0.08333333  0.91666667  1.00000000  1
  V  V277  1  0.08333333  0.91666667  0.08333333  1
  V  V278  1  0.08333333  0.91666667  0.16666667  1
  V  V279  1  0.08333333  0.91666667  0.25000000  1
  W  W280  1  0.08333333  0.91666667  0.33333333  1
  V  V281  1  0.08333333  0.91666667  0.41666667  1
  Cr  Cr282  1  0.08333333  0.91666667  0.50000000  1
  Cr  Cr283  1  0.08333333  0.91666667  0.58333333  1
  Cr  Cr284  1  0.08333333  0.91666667  0.66666667  1
  Cr  Cr285  1  0.08333333  0.91666667  0.75000000  1
  Cr  Cr286  1  0.08333333  0.91666667  0.83333333  1
  V  V287  1  0.08333333  0.91666667  0.91666667  1
  V  V288  1  0.16666667  0.00000000  0.00000000  1
  V  V289  1  0.16666667  0.00000000  0.08333333  1
  V  V290  1  0.16666667  0.00000000  0.16666667  1
  V  V291  1  0.16666667  0.00000000  0.25000000  1
  V  V292  1  0.16666667  0.00000000  0.33333333  1
  V  V293  1  0.16666667  0.00000000  0.41666667  1
  V  V294  1  0.16666667  0.00000000  0.50000000  1
  V  V295  1  0.16666667  0.00000000  0.58333333  1
  Cr  Cr296  1  0.16666667  0.00000000  0.66666667  1
  Cr  Cr297  1  0.16666667  0.00000000  0.75000000  1
  Cr  Cr298  1  0.16666667  0.00000000  0.83333333  1
  V  V299  1  0.16666667  0.00000000  0.91666667  1
  V  V300  1  0.16666667  0.08333333  0.00000000  1
  W  W301  1  0.16666667  0.08333333  0.08333333  1
  V  V302  1  0.16666667  0.08333333  0.16666667  1
  V  V303  1  0.16666667  0.08333333  0.25000000  1
  W  W304  1  0.16666667  0.08333333  0.33333333  1
  V  V305  1  0.16666667  0.08333333  0.41666667  1
  V  V306  1  0.16666667  0.08333333  0.50000000  1
  V  V307  1  0.16666667  0.08333333  0.58333333  1
  W  W308  1  0.16666667  0.08333333  0.66666667  1
  V  V309  1  0.16666667  0.08333333  0.75000000  1
  V  V310  1  0.16666667  0.08333333  0.83333333  1
  V  V311  1  0.16666667  0.08333333  0.91666667  1
  V  V312  1  0.16666667  0.16666667  0.00000000  1
  V  V313  1  0.16666667  0.16666667  0.08333333  1
  V  V314  1  0.16666667  0.16666667  0.16666667  1
  V  V315  1  0.16666667  0.16666667  0.25000000  1
  V  V316  1  0.16666667  0.16666667  0.33333333  1
  V  V317  1  0.16666667  0.16666667  0.41666667  1
  V  V318  1  0.16666667  0.16666667  0.50000000  1
  V  V319  1  0.16666667  0.16666667  0.58333333  1
  V  V320  1  0.16666667  0.16666667  0.66666667  1
  V  V321  1  0.16666667  0.16666667  0.75000000  1
  V  V322  1  0.16666667  0.16666667  0.83333333  1
  V  V323  1  0.16666667  0.16666667  0.91666667  1
  V  V324  1  0.16666667  0.25000000  0.00000000  1
  V  V325  1  0.16666667  0.25000000  0.08333333  1
  V  V326  1  0.16666667  0.25000000  0.16666667  1
  W  W327  1  0.16666667  0.25000000  0.25000000  1
  V  V328  1  0.16666667  0.25000000  0.33333333  1
  V  V329  1  0.16666667  0.25000000  0.41666667  1
  V  V330  1  0.16666667  0.25000000  0.50000000  1
  W  W331  1  0.16666667  0.25000000  0.58333333  1
  V  V332  1  0.16666667  0.25000000  0.66666667  1
  V  V333  1  0.16666667  0.25000000  0.75000000  1
  V  V334  1  0.16666667  0.25000000  0.83333333  1
  V  V335  1  0.16666667  0.25000000  0.91666667  1
  V  V336  1  0.16666667  0.33333333  1.00000000  1
  V  V337  1  0.16666667  0.33333333  0.08333333  1
  W  W338  1  0.16666667  0.33333333  0.16666667  1
  V  V339  1  0.16666667  0.33333333  0.25000000  1
  V  V340  1  0.16666667  0.33333333  0.33333333  1
  V  V341  1  0.16666667  0.33333333  0.41666667  1
  V  V342  1  0.16666667  0.33333333  0.50000000  1
  V  V343  1  0.16666667  0.33333333  0.58333333  1
  V  V344  1  0.16666667  0.33333333  0.66666667  1
  V  V345  1  0.16666667  0.33333333  0.75000000  1
  V  V346  1  0.16666667  0.33333333  0.83333333  1
  V  V347  1  0.16666667  0.33333333  0.91666667  1
  V  V348  1  0.16666667  0.41666667  0.00000000  1
  W  W349  1  0.16666667  0.41666667  0.08333333  1
  V  V350  1  0.16666667  0.41666667  0.16666667  1
  V  V351  1  0.16666667  0.41666667  0.25000000  1
  V  V352  1  0.16666667  0.41666667  0.33333333  1
  V  V353  1  0.16666667  0.41666667  0.41666667  1
  W  W354  1  0.16666667  0.41666667  0.50000000  1
  W  W355  1  0.16666667  0.41666667  0.58333333  1
  V  V356  1  0.16666667  0.41666667  0.66666667  1
  V  V357  1  0.16666667  0.41666667  0.75000000  1
  V  V358  1  0.16666667  0.41666667  0.83333333  1
  V  V359  1  0.16666667  0.41666667  0.91666667  1
  V  V360  1  0.16666667  0.50000000  0.00000000  1
  W  W361  1  0.16666667  0.50000000  0.08333333  1
  V  V362  1  0.16666667  0.50000000  0.16666667  1
  V  V363  1  0.16666667  0.50000000  0.25000000  1
  V  V364  1  0.16666667  0.50000000  0.33333333  1
  V  V365  1  0.16666667  0.50000000  0.41666667  1
  V  V366  1  0.16666667  0.50000000  0.50000000  1
  V  V367  1  0.16666667  0.50000000  0.58333333  1
  V  V368  1  0.16666667  0.50000000  0.66666667  1
  V  V369  1  0.16666667  0.50000000  0.75000000  1
  V  V370  1  0.16666667  0.50000000  0.83333333  1
  V  V371  1  0.16666667  0.50000000  0.91666667  1
  V  V372  1  0.16666667  0.58333333  0.00000000  1
  V  V373  1  0.16666667  0.58333333  0.08333333  1
  V  V374  1  0.16666667  0.58333333  0.16666667  1
  V  V375  1  0.16666667  0.58333333  0.25000000  1
  V  V376  1  0.16666667  0.58333333  0.33333333  1
  W  W377  1  0.16666667  0.58333333  0.41666667  1
  V  V378  1  0.16666667  0.58333333  0.50000000  1
  Cr  Cr379  1  0.16666667  0.58333333  0.58333333  1
  Cr  Cr380  1  0.16666667  0.58333333  0.66666667  1
  V  V381  1  0.16666667  0.58333333  0.75000000  1
  W  W382  1  0.16666667  0.58333333  0.83333333  1
  V  V383  1  0.16666667  0.58333333  0.91666667  1
  V  V384  1  0.16666667  0.66666667  1.00000000  1
  W  W385  1  0.16666667  0.66666667  0.08333333  1
  V  V386  1  0.16666667  0.66666667  0.16666667  1
  V  V387  1  0.16666667  0.66666667  0.25000000  1
  V  V388  1  0.16666667  0.66666667  0.33333333  1
  V  V389  1  0.16666667  0.66666667  0.41666667  1
  Cr  Cr390  1  0.16666667  0.66666667  0.50000000  1
  Cr  Cr391  1  0.16666667  0.66666667  0.58333333  1
  Cr  Cr392  1  0.16666667  0.66666667  0.66666667  1
  V  V393  1  0.16666667  0.66666667  0.75000000  1
  V  V394  1  0.16666667  0.66666667  0.83333333  1
  V  V395  1  0.16666667  0.66666667  0.91666667  1
  V  V396  1  0.16666667  0.75000000  1.00000000  1
  V  V397  1  0.16666667  0.75000000  0.08333333  1
  V  V398  1  0.16666667  0.75000000  0.16666667  1
  V  V399  1  0.16666667  0.75000000  0.25000000  1
  V  V400  1  0.16666667  0.75000000  0.33333333  1
  Cr  Cr401  1  0.16666667  0.75000000  0.41666667  1
  Cr  Cr402  1  0.16666667  0.75000000  0.50000000  1
  Cr  Cr403  1  0.16666667  0.75000000  0.58333333  1
  Cr  Cr404  1  0.16666667  0.75000000  0.66666667  1
  Cr  Cr405  1  0.16666667  0.75000000  0.75000000  1
  V  V406  1  0.16666667  0.75000000  0.83333333  1
  W  W407  1  0.16666667  0.75000000  0.91666667  1
  V  V408  1  0.16666667  0.83333333  0.00000000  1
  W  W409  1  0.16666667  0.83333333  0.08333333  1
  W  W410  1  0.16666667  0.83333333  0.16666667  1
  W  W411  1  0.16666667  0.83333333  0.25000000  1
  V  V412  1  0.16666667  0.83333333  0.33333333  1
  V  V413  1  0.16666667  0.83333333  0.41666667  1
  Cr  Cr414  1  0.16666667  0.83333333  0.50000000  1
  Cr  Cr415  1  0.16666667  0.83333333  0.58333333  1
  Cr  Cr416  1  0.16666667  0.83333333  0.66666667  1
  Cr  Cr417  1  0.16666667  0.83333333  0.75000000  1
  Cr  Cr418  1  0.16666667  0.83333333  0.83333333  1
  V  V419  1  0.16666667  0.83333333  0.91666667  1
  V  V420  1  0.16666667  0.91666667  1.00000000  1
  V  V421  1  0.16666667  0.91666667  0.08333333  1
  V  V422  1  0.16666667  0.91666667  0.16666667  1
  V  V423  1  0.16666667  0.91666667  0.25000000  1
  V  V424  1  0.16666667  0.91666667  0.33333333  1
  V  V425  1  0.16666667  0.91666667  0.41666667  1
  Cr  Cr426  1  0.16666667  0.91666667  0.50000000  1
  Cr  Cr427  1  0.16666667  0.91666667  0.58333333  1
  Cr  Cr428  1  0.16666667  0.91666667  0.66666667  1
  Cr  Cr429  1  0.16666667  0.91666667  0.75000000  1
  Cr  Cr430  1  0.16666667  0.91666667  0.83333333  1
  V  V431  1  0.16666667  0.91666667  0.91666667  1
  V  V432  1  0.25000000  0.00000000  0.00000000  1
  V  V433  1  0.25000000  0.00000000  0.08333333  1
  V  V434  1  0.25000000  0.00000000  0.16666667  1
  V  V435  1  0.25000000  0.00000000  0.25000000  1
  V  V436  1  0.25000000  0.00000000  0.33333333  1
  V  V437  1  0.25000000  0.00000000  0.41666667  1
  V  V438  1  0.25000000  0.00000000  0.50000000  1
  V  V439  1  0.25000000  0.00000000  0.58333333  1
  Cr  Cr440  1  0.25000000  0.00000000  0.66666667  1
  Cr  Cr441  1  0.25000000  0.00000000  0.75000000  1
  V  V442  1  0.25000000  0.00000000  0.83333333  1
  V  V443  1  0.25000000  0.00000000  0.91666667  1
  W  W444  1  0.25000000  0.08333333  0.00000000  1
  V  V445  1  0.25000000  0.08333333  0.08333333  1
  V  V446  1  0.25000000  0.08333333  0.16666667  1
  V  V447  1  0.25000000  0.08333333  0.25000000  1
  V  V448  1  0.25000000  0.08333333  0.33333333  1
  V  V449  1  0.25000000  0.08333333  0.41666667  1
  V  V450  1  0.25000000  0.08333333  0.50000000  1
  V  V451  1  0.25000000  0.08333333  0.58333333  1
  V  V452  1  0.25000000  0.08333333  0.66666667  1
  V  V453  1  0.25000000  0.08333333  0.75000000  1
  V  V454  1  0.25000000  0.08333333  0.83333333  1
  V  V455  1  0.25000000  0.08333333  0.91666667  1
  V  V456  1  0.25000000  0.16666667  0.00000000  1
  V  V457  1  0.25000000  0.16666667  0.08333333  1
  V  V458  1  0.25000000  0.16666667  0.16666667  1
  V  V459  1  0.25000000  0.16666667  0.25000000  1
  V  V460  1  0.25000000  0.16666667  0.33333333  1
  V  V461  1  0.25000000  0.16666667  0.41666667  1
  V  V462  1  0.25000000  0.16666667  0.50000000  1
  V  V463  1  0.25000000  0.16666667  0.58333333  1
  V  V464  1  0.25000000  0.16666667  0.66666667  1
  V  V465  1  0.25000000  0.16666667  0.75000000  1
  W  W466  1  0.25000000  0.16666667  0.83333333  1
  V  V467  1  0.25000000  0.16666667  0.91666667  1
  V  V468  1  0.25000000  0.25000000  0.00000000  1
  V  V469  1  0.25000000  0.25000000  0.08333333  1
  V  V470  1  0.25000000  0.25000000  0.16666667  1
  V  V471  1  0.25000000  0.25000000  0.25000000  1
  V  V472  1  0.25000000  0.25000000  0.33333333  1
  V  V473  1  0.25000000  0.25000000  0.41666667  1
  V  V474  1  0.25000000  0.25000000  0.50000000  1
  V  V475  1  0.25000000  0.25000000  0.58333333  1
  V  V476  1  0.25000000  0.25000000  0.66666667  1
  V  V477  1  0.25000000  0.25000000  0.75000000  1
  V  V478  1  0.25000000  0.25000000  0.83333333  1
  V  V479  1  0.25000000  0.25000000  0.91666667  1
  W  W480  1  0.25000000  0.33333333  0.00000000  1
  W  W481  1  0.25000000  0.33333333  0.08333333  1
  V  V482  1  0.25000000  0.33333333  0.16666667  1
  V  V483  1  0.25000000  0.33333333  0.25000000  1
  V  V484  1  0.25000000  0.33333333  0.33333333  1
  W  W485  1  0.25000000  0.33333333  0.41666667  1
  V  V486  1  0.25000000  0.33333333  0.50000000  1
  W  W487  1  0.25000000  0.33333333  0.58333333  1
  V  V488  1  0.25000000  0.33333333  0.66666667  1
  V  V489  1  0.25000000  0.33333333  0.75000000  1
  V  V490  1  0.25000000  0.33333333  0.83333333  1
  V  V491  1  0.25000000  0.33333333  0.91666667  1
  W  W492  1  0.25000000  0.41666667  0.00000000  1
  W  W493  1  0.25000000  0.41666667  0.08333333  1
  V  V494  1  0.25000000  0.41666667  0.16666667  1
  V  V495  1  0.25000000  0.41666667  0.25000000  1
  V  V496  1  0.25000000  0.41666667  0.33333333  1
  V  V497  1  0.25000000  0.41666667  0.41666667  1
  V  V498  1  0.25000000  0.41666667  0.50000000  1
  V  V499  1  0.25000000  0.41666667  0.58333333  1
  V  V500  1  0.25000000  0.41666667  0.66666667  1
  V  V501  1  0.25000000  0.41666667  0.75000000  1
  V  V502  1  0.25000000  0.41666667  0.83333333  1
  V  V503  1  0.25000000  0.41666667  0.91666667  1
  W  W504  1  0.25000000  0.50000000  0.00000000  1
  V  V505  1  0.25000000  0.50000000  0.08333333  1
  V  V506  1  0.25000000  0.50000000  0.16666667  1
  V  V507  1  0.25000000  0.50000000  0.25000000  1
  V  V508  1  0.25000000  0.50000000  0.33333333  1
  V  V509  1  0.25000000  0.50000000  0.41666667  1
  V  V510  1  0.25000000  0.50000000  0.50000000  1
  V  V511  1  0.25000000  0.50000000  0.58333333  1
  W  W512  1  0.25000000  0.50000000  0.66666667  1
  V  V513  1  0.25000000  0.50000000  0.75000000  1
  V  V514  1  0.25000000  0.50000000  0.83333333  1
  V  V515  1  0.25000000  0.50000000  0.91666667  1
  V  V516  1  0.25000000  0.58333333  1.00000000  1
  W  W517  1  0.25000000  0.58333333  0.08333333  1
  W  W518  1  0.25000000  0.58333333  0.16666667  1
  V  V519  1  0.25000000  0.58333333  0.25000000  1
  V  V520  1  0.25000000  0.58333333  0.33333333  1
  V  V521  1  0.25000000  0.58333333  0.41666667  1
  V  V522  1  0.25000000  0.58333333  0.50000000  1
  V  V523  1  0.25000000  0.58333333  0.58333333  1
  V  V524  1  0.25000000  0.58333333  0.66666667  1
  V  V525  1  0.25000000  0.58333333  0.75000000  1
  V  V526  1  0.25000000  0.58333333  0.83333333  1
  V  V527  1  0.25000000  0.58333333  0.91666667  1
  V  V528  1  0.25000000  0.66666667  1.00000000  1
  V  V529  1  0.25000000  0.66666667  0.08333333  1
  V  V530  1  0.25000000  0.66666667  0.16666667  1
  V  V531  1  0.25000000  0.66666667  0.25000000  1
  V  V532  1  0.25000000  0.66666667  0.33333333  1
  V  V533  1  0.25000000  0.66666667  0.41666667  1
  Cr  Cr534  1  0.25000000  0.66666667  0.50000000  1
  Cr  Cr535  1  0.25000000  0.66666667  0.58333333  1
  V  V536  1  0.25000000  0.66666667  0.66666667  1
  V  V537  1  0.25000000  0.66666667  0.75000000  1
  V  V538  1  0.25000000  0.66666667  0.83333333  1
  W  W539  1  0.25000000  0.66666667  0.91666667  1
  V  V540  1  0.25000000  0.75000000  1.00000000  1
  V  V541  1  0.25000000  0.75000000  0.08333333  1
  V  V542  1  0.25000000  0.75000000  0.16666667  1
  V  V543  1  0.25000000  0.75000000  0.25000000  1
  V  V544  1  0.25000000  0.75000000  0.33333333  1
  V  V545  1  0.25000000  0.75000000  0.41666667  1
  V  V546  1  0.25000000  0.75000000  0.50000000  1
  Cr  Cr547  1  0.25000000  0.75000000  0.58333333  1
  Cr  Cr548  1  0.25000000  0.75000000  0.66666667  1
  V  V549  1  0.25000000  0.75000000  0.75000000  1
  V  V550  1  0.25000000  0.75000000  0.83333333  1
  V  V551  1  0.25000000  0.75000000  0.91666667  1
  V  V552  1  0.25000000  0.83333333  0.00000000  1
  V  V553  1  0.25000000  0.83333333  0.08333333  1
  V  V554  1  0.25000000  0.83333333  0.16666667  1
  V  V555  1  0.25000000  0.83333333  0.25000000  1
  V  V556  1  0.25000000  0.83333333  0.33333333  1
  V  V557  1  0.25000000  0.83333333  0.41666667  1
  V  V558  1  0.25000000  0.83333333  0.50000000  1
  Cr  Cr559  1  0.25000000  0.83333333  0.58333333  1
  Cr  Cr560  1  0.25000000  0.83333333  0.66666667  1
  V  V561  1  0.25000000  0.83333333  0.75000000  1
  W  W562  1  0.25000000  0.83333333  0.83333333  1
  V  V563  1  0.25000000  0.83333333  0.91666667  1
  V  V564  1  0.25000000  0.91666667  1.00000000  1
  V  V565  1  0.25000000  0.91666667  0.08333333  1
  V  V566  1  0.25000000  0.91666667  0.16666667  1
  V  V567  1  0.25000000  0.91666667  0.25000000  1
  V  V568  1  0.25000000  0.91666667  0.33333333  1
  V  V569  1  0.25000000  0.91666667  0.41666667  1
  V  V570  1  0.25000000  0.91666667  0.50000000  1
  Cr  Cr571  1  0.25000000  0.91666667  0.58333333  1
  Cr  Cr572  1  0.25000000  0.91666667  0.66666667  1
  Cr  Cr573  1  0.25000000  0.91666667  0.75000000  1
  Cr  Cr574  1  0.25000000  0.91666667  0.83333333  1
  V  V575  1  0.25000000  0.91666667  0.91666667  1
  V  V576  1  0.33333333  0.00000000  0.00000000  1
  V  V577  1  0.33333333  0.00000000  0.08333333  1
  V  V578  1  0.33333333  0.00000000  0.16666667  1
  V  V579  1  0.33333333  0.00000000  0.25000000  1
  V  V580  1  0.33333333  0.00000000  0.33333333  1
  V  V581  1  0.33333333  0.00000000  0.41666667  1
  W  W582  1  0.33333333  0.00000000  0.50000000  1
  V  V583  1  0.33333333  0.00000000  0.58333333  1
  V  V584  1  0.33333333  0.00000000  0.66666667  1
  V  V585  1  0.33333333  0.00000000  0.75000000  1
  V  V586  1  0.33333333  0.00000000  0.83333333  1
  V  V587  1  0.33333333  0.00000000  0.91666667  1
  V  V588  1  0.33333333  0.08333333  0.00000000  1
  W  W589  1  0.33333333  0.08333333  0.08333333  1
  V  V590  1  0.33333333  0.08333333  0.16666667  1
  W  W591  1  0.33333333  0.08333333  0.25000000  1
  V  V592  1  0.33333333  0.08333333  0.33333333  1
  V  V593  1  0.33333333  0.08333333  0.41666667  1
  W  W594  1  0.33333333  0.08333333  0.50000000  1
  V  V595  1  0.33333333  0.08333333  0.58333333  1
  W  W596  1  0.33333333  0.08333333  0.66666667  1
  V  V597  1  0.33333333  0.08333333  0.75000000  1
  V  V598  1  0.33333333  0.08333333  0.83333333  1
  V  V599  1  0.33333333  0.08333333  0.91666667  1
  V  V600  1  0.33333333  0.16666667  0.00000000  1
  V  V601  1  0.33333333  0.16666667  0.08333333  1
  V  V602  1  0.33333333  0.16666667  0.16666667  1
  V  V603  1  0.33333333  0.16666667  0.25000000  1
  W  W604  1  0.33333333  0.16666667  0.33333333  1
  W  W605  1  0.33333333  0.16666667  0.41666667  1
  V  V606  1  0.33333333  0.16666667  0.50000000  1
  V  V607  1  0.33333333  0.16666667  0.58333333  1
  V  V608  1  0.33333333  0.16666667  0.66666667  1
  V  V609  1  0.33333333  0.16666667  0.75000000  1
  V  V610  1  0.33333333  0.16666667  0.83333333  1
  V  V611  1  0.33333333  0.16666667  0.91666667  1
  V  V612  1  0.33333333  0.25000000  0.00000000  1
  V  V613  1  0.33333333  0.25000000  0.08333333  1
  V  V614  1  0.33333333  0.25000000  0.16666667  1
  W  W615  1  0.33333333  0.25000000  0.25000000  1
  V  V616  1  0.33333333  0.25000000  0.33333333  1
  V  V617  1  0.33333333  0.25000000  0.41666667  1
  V  V618  1  0.33333333  0.25000000  0.50000000  1
  W  W619  1  0.33333333  0.25000000  0.58333333  1
  V  V620  1  0.33333333  0.25000000  0.66666667  1
  V  V621  1  0.33333333  0.25000000  0.75000000  1
  V  V622  1  0.33333333  0.25000000  0.83333333  1
  V  V623  1  0.33333333  0.25000000  0.91666667  1
  V  V624  1  0.33333333  0.33333333  0.00000000  1
  V  V625  1  0.33333333  0.33333333  0.08333333  1
  V  V626  1  0.33333333  0.33333333  0.16666667  1
  V  V627  1  0.33333333  0.33333333  0.25000000  1
  V  V628  1  0.33333333  0.33333333  0.33333333  1
  V  V629  1  0.33333333  0.33333333  0.41666667  1
  V  V630  1  0.33333333  0.33333333  0.50000000  1
  V  V631  1  0.33333333  0.33333333  0.58333333  1
  V  V632  1  0.33333333  0.33333333  0.66666667  1
  V  V633  1  0.33333333  0.33333333  0.75000000  1
  V  V634  1  0.33333333  0.33333333  0.83333333  1
  V  V635  1  0.33333333  0.33333333  0.91666667  1
  V  V636  1  0.33333333  0.41666667  0.00000000  1
  V  V637  1  0.33333333  0.41666667  0.08333333  1
  V  V638  1  0.33333333  0.41666667  0.16666667  1
  V  V639  1  0.33333333  0.41666667  0.25000000  1
  V  V640  1  0.33333333  0.41666667  0.33333333  1
  V  V641  1  0.33333333  0.41666667  0.41666667  1
  W  W642  1  0.33333333  0.41666667  0.50000000  1
  V  V643  1  0.33333333  0.41666667  0.58333333  1
  V  V644  1  0.33333333  0.41666667  0.66666667  1
  V  V645  1  0.33333333  0.41666667  0.75000000  1
  V  V646  1  0.33333333  0.41666667  0.83333333  1
  V  V647  1  0.33333333  0.41666667  0.91666667  1
  V  V648  1  0.33333333  0.50000000  0.00000000  1
  V  V649  1  0.33333333  0.50000000  0.08333333  1
  V  V650  1  0.33333333  0.50000000  0.16666667  1
  V  V651  1  0.33333333  0.50000000  0.25000000  1
  V  V652  1  0.33333333  0.50000000  0.33333333  1
  V  V653  1  0.33333333  0.50000000  0.41666667  1
  V  V654  1  0.33333333  0.50000000  0.50000000  1
  V  V655  1  0.33333333  0.50000000  0.58333333  1
  V  V656  1  0.33333333  0.50000000  0.66666667  1
  V  V657  1  0.33333333  0.50000000  0.75000000  1
  W  W658  1  0.33333333  0.50000000  0.83333333  1
  V  V659  1  0.33333333  0.50000000  0.91666667  1
  Ti  Ti660  1  0.33333333  0.58333333  0.00000000  1
  V  V661  1  0.33333333  0.58333333  0.08333333  1
  V  V662  1  0.33333333  0.58333333  0.16666667  1
  V  V663  1  0.33333333  0.58333333  0.25000000  1
  V  V664  1  0.33333333  0.58333333  0.33333333  1
  V  V665  1  0.33333333  0.58333333  0.41666667  1
  V  V666  1  0.33333333  0.58333333  0.50000000  1
  V  V667  1  0.33333333  0.58333333  0.58333333  1
  V  V668  1  0.33333333  0.58333333  0.66666667  1
  W  W669  1  0.33333333  0.58333333  0.75000000  1
  V  V670  1  0.33333333  0.58333333  0.83333333  1
  V  V671  1  0.33333333  0.58333333  0.91666667  1
  V  V672  1  0.33333333  0.66666667  1.00000000  1
  V  V673  1  0.33333333  0.66666667  0.08333333  1
  V  V674  1  0.33333333  0.66666667  0.16666667  1
  V  V675  1  0.33333333  0.66666667  0.25000000  1
  V  V676  1  0.33333333  0.66666667  0.33333333  1
  V  V677  1  0.33333333  0.66666667  0.41666667  1
  V  V678  1  0.33333333  0.66666667  0.50000000  1
  V  V679  1  0.33333333  0.66666667  0.58333333  1
  W  W680  1  0.33333333  0.66666667  0.66666667  1
  V  V681  1  0.33333333  0.66666667  0.75000000  1
  Ti  Ti682  1  0.33333333  0.66666667  0.83333333  1
  V  V683  1  0.33333333  0.66666667  0.91666667  1
  V  V684  1  0.33333333  0.75000000  1.00000000  1
  V  V685  1  0.33333333  0.75000000  0.08333333  1
  W  W686  1  0.33333333  0.75000000  0.16666667  1
  V  V687  1  0.33333333  0.75000000  0.25000000  1
  W  W688  1  0.33333333  0.75000000  0.33333333  1
  V  V689  1  0.33333333  0.75000000  0.41666667  1
  V  V690  1  0.33333333  0.75000000  0.50000000  1
  V  V691  1  0.33333333  0.75000000  0.58333333  1
  V  V692  1  0.33333333  0.75000000  0.66666667  1
  W  W693  1  0.33333333  0.75000000  0.75000000  1
  V  V694  1  0.33333333  0.75000000  0.83333333  1
  Ti  Ti695  1  0.33333333  0.75000000  0.91666667  1
  W  W696  1  0.33333333  0.83333333  0.00000000  1
  V  V697  1  0.33333333  0.83333333  0.08333333  1
  V  V698  1  0.33333333  0.83333333  0.16666667  1
  V  V699  1  0.33333333  0.83333333  0.25000000  1
  V  V700  1  0.33333333  0.83333333  0.33333333  1
  V  V701  1  0.33333333  0.83333333  0.41666667  1
  W  W702  1  0.33333333  0.83333333  0.50000000  1
  V  V703  1  0.33333333  0.83333333  0.58333333  1
  Cr  Cr704  1  0.33333333  0.83333333  0.66666667  1
  V  V705  1  0.33333333  0.83333333  0.75000000  1
  V  V706  1  0.33333333  0.83333333  0.83333333  1
  V  V707  1  0.33333333  0.83333333  0.91666667  1
  V  V708  1  0.33333333  0.91666667  0.00000000  1
  V  V709  1  0.33333333  0.91666667  0.08333333  1
  V  V710  1  0.33333333  0.91666667  0.16666667  1
  V  V711  1  0.33333333  0.91666667  0.25000000  1
  V  V712  1  0.33333333  0.91666667  0.33333333  1
  V  V713  1  0.33333333  0.91666667  0.41666667  1
  V  V714  1  0.33333333  0.91666667  0.50000000  1
  V  V715  1  0.33333333  0.91666667  0.58333333  1
  V  V716  1  0.33333333  0.91666667  0.66666667  1
  V  V717  1  0.33333333  0.91666667  0.75000000  1
  V  V718  1  0.33333333  0.91666667  0.83333333  1
  W  W719  1  0.33333333  0.91666667  0.91666667  1
  V  V720  1  0.41666667  0.00000000  0.00000000  1
  V  V721  1  0.41666667  0.00000000  0.08333333  1
  V  V722  1  0.41666667  0.00000000  0.16666667  1
  V  V723  1  0.41666667  0.00000000  0.25000000  1
  W  W724  1  0.41666667  0.00000000  0.33333333  1
  V  V725  1  0.41666667  0.00000000  0.41666667  1
  V  V726  1  0.41666667  0.00000000  0.50000000  1
  V  V727  1  0.41666667  0.00000000  0.58333333  1
  V  V728  1  0.41666667  0.00000000  0.66666667  1
  V  V729  1  0.41666667  0.00000000  0.75000000  1
  V  V730  1  0.41666667  0.00000000  0.83333333  1
  V  V731  1  0.41666667  0.00000000  0.91666667  1
  V  V732  1  0.41666667  0.08333333  0.00000000  1
  V  V733  1  0.41666667  0.08333333  0.08333333  1
  V  V734  1  0.41666667  0.08333333  0.16666667  1
  V  V735  1  0.41666667  0.08333333  0.25000000  1
  V  V736  1  0.41666667  0.08333333  0.33333333  1
  V  V737  1  0.41666667  0.08333333  0.41666667  1
  V  V738  1  0.41666667  0.08333333  0.50000000  1
  W  W739  1  0.41666667  0.08333333  0.58333333  1
  V  V740  1  0.41666667  0.08333333  0.66666667  1
  V  V741  1  0.41666667  0.08333333  0.75000000  1
  W  W742  1  0.41666667  0.08333333  0.83333333  1
  V  V743  1  0.41666667  0.08333333  0.91666667  1
  W  W744  1  0.41666667  0.16666667  0.00000000  1
  W  W745  1  0.41666667  0.16666667  0.08333333  1
  V  V746  1  0.41666667  0.16666667  0.16666667  1
  V  V747  1  0.41666667  0.16666667  0.25000000  1
  V  V748  1  0.41666667  0.16666667  0.33333333  1
  V  V749  1  0.41666667  0.16666667  0.41666667  1
  V  V750  1  0.41666667  0.16666667  0.50000000  1
  V  V751  1  0.41666667  0.16666667  0.58333333  1
  V  V752  1  0.41666667  0.16666667  0.66666667  1
  V  V753  1  0.41666667  0.16666667  0.75000000  1
  W  W754  1  0.41666667  0.16666667  0.83333333  1
  W  W755  1  0.41666667  0.16666667  0.91666667  1
  V  V756  1  0.41666667  0.25000000  0.00000000  1
  V  V757  1  0.41666667  0.25000000  0.08333333  1
  W  W758  1  0.41666667  0.25000000  0.16666667  1
  V  V759  1  0.41666667  0.25000000  0.25000000  1
  V  V760  1  0.41666667  0.25000000  0.33333333  1
  V  V761  1  0.41666667  0.25000000  0.41666667  1
  V  V762  1  0.41666667  0.25000000  0.50000000  1
  V  V763  1  0.41666667  0.25000000  0.58333333  1
  V  V764  1  0.41666667  0.25000000  0.66666667  1
  V  V765  1  0.41666667  0.25000000  0.75000000  1
  W  W766  1  0.41666667  0.25000000  0.83333333  1
  V  V767  1  0.41666667  0.25000000  0.91666667  1
  W  W768  1  0.41666667  0.33333333  0.00000000  1
  W  W769  1  0.41666667  0.33333333  0.08333333  1
  V  V770  1  0.41666667  0.33333333  0.16666667  1
  V  V771  1  0.41666667  0.33333333  0.25000000  1
  V  V772  1  0.41666667  0.33333333  0.33333333  1
  V  V773  1  0.41666667  0.33333333  0.41666667  1
  W  W774  1  0.41666667  0.33333333  0.50000000  1
  V  V775  1  0.41666667  0.33333333  0.58333333  1
  V  V776  1  0.41666667  0.33333333  0.66666667  1
  V  V777  1  0.41666667  0.33333333  0.75000000  1
  W  W778  1  0.41666667  0.33333333  0.83333333  1
  V  V779  1  0.41666667  0.33333333  0.91666667  1
  V  V780  1  0.41666667  0.41666667  1.00000000  1
  W  W781  1  0.41666667  0.41666667  0.08333333  1
  V  V782  1  0.41666667  0.41666667  0.16666667  1
  W  W783  1  0.41666667  0.41666667  0.25000000  1
  V  V784  1  0.41666667  0.41666667  0.33333333  1
  V  V785  1  0.41666667  0.41666667  0.41666667  1
  V  V786  1  0.41666667  0.41666667  0.50000000  1
  V  V787  1  0.41666667  0.41666667  0.58333333  1
  V  V788  1  0.41666667  0.41666667  0.66666667  1
  V  V789  1  0.41666667  0.41666667  0.75000000  1
  V  V790  1  0.41666667  0.41666667  0.83333333  1
  V  V791  1  0.41666667  0.41666667  0.91666667  1
  V  V792  1  0.41666667  0.50000000  1.00000000  1
  V  V793  1  0.41666667  0.50000000  0.08333333  1
  V  V794  1  0.41666667  0.50000000  0.16666667  1
  V  V795  1  0.41666667  0.50000000  0.25000000  1
  W  W796  1  0.41666667  0.50000000  0.33333333  1
  V  V797  1  0.41666667  0.50000000  0.41666667  1
  V  V798  1  0.41666667  0.50000000  0.50000000  1
  V  V799  1  0.41666667  0.50000000  0.58333333  1
  V  V800  1  0.41666667  0.50000000  0.66666667  1
  Ti  Ti801  1  0.41666667  0.50000000  0.75000000  1
  Ti  Ti802  1  0.41666667  0.50000000  0.83333333  1
  V  V803  1  0.41666667  0.50000000  0.91666667  1
  Ti  Ti804  1  0.41666667  0.58333333  0.00000000  1
  W  W805  1  0.41666667  0.58333333  0.08333333  1
  V  V806  1  0.41666667  0.58333333  0.16666667  1
  W  W807  1  0.41666667  0.58333333  0.25000000  1
  V  V808  1  0.41666667  0.58333333  0.33333333  1
  V  V809  1  0.41666667  0.58333333  0.41666667  1
  V  V810  1  0.41666667  0.58333333  0.50000000  1
  V  V811  1  0.41666667  0.58333333  0.58333333  1
  W  W812  1  0.41666667  0.58333333  0.66666667  1
  V  V813  1  0.41666667  0.58333333  0.75000000  1
  Zr  Zr814  1  0.41666667  0.58333333  0.83333333  1
  Zr  Zr815  1  0.41666667  0.58333333  0.91666667  1
  Zr  Zr816  1  0.41666667  0.66666667  1.00000000  1
  V  V817  1  0.41666667  0.66666667  0.08333333  1
  V  V818  1  0.41666667  0.66666667  0.16666667  1
  V  V819  1  0.41666667  0.66666667  0.25000000  1
  W  W820  1  0.41666667  0.66666667  0.33333333  1
  W  W821  1  0.41666667  0.66666667  0.41666667  1
  V  V822  1  0.41666667  0.66666667  0.50000000  1
  V  V823  1  0.41666667  0.66666667  0.58333333  1
  V  V824  1  0.41666667  0.66666667  0.66666667  1
  Ti  Ti825  1  0.41666667  0.66666667  0.75000000  1
  Zr  Zr826  1  0.41666667  0.66666667  0.83333333  1
  Zr  Zr827  1  0.41666667  0.66666667  0.91666667  1
  Zr  Zr828  1  0.41666667  0.75000000  1.00000000  1
  Ti  Ti829  1  0.41666667  0.75000000  0.08333333  1
  W  W830  1  0.41666667  0.75000000  0.16666667  1
  V  V831  1  0.41666667  0.75000000  0.25000000  1
  V  V832  1  0.41666667  0.75000000  0.33333333  1
  V  V833  1  0.41666667  0.75000000  0.41666667  1
  W  W834  1  0.41666667  0.75000000  0.50000000  1
  V  V835  1  0.41666667  0.75000000  0.58333333  1
  V  V836  1  0.41666667  0.75000000  0.66666667  1
  V  V837  1  0.41666667  0.75000000  0.75000000  1
  Ti  Ti838  1  0.41666667  0.75000000  0.83333333  1
  Zr  Zr839  1  0.41666667  0.75000000  0.91666667  1
  V  V840  1  0.41666667  0.83333333  0.00000000  1
  Ti  Ti841  1  0.41666667  0.83333333  0.08333333  1
  V  V842  1  0.41666667  0.83333333  0.16666667  1
  V  V843  1  0.41666667  0.83333333  0.25000000  1
  V  V844  1  0.41666667  0.83333333  0.33333333  1
  V  V845  1  0.41666667  0.83333333  0.41666667  1
  W  W846  1  0.41666667  0.83333333  0.50000000  1
  V  V847  1  0.41666667  0.83333333  0.58333333  1
  V  V848  1  0.41666667  0.83333333  0.66666667  1
  V  V849  1  0.41666667  0.83333333  0.75000000  1
  V  V850  1  0.41666667  0.83333333  0.83333333  1
  Ti  Ti851  1  0.41666667  0.83333333  0.91666667  1
  Ti  Ti852  1  0.41666667  0.91666667  0.00000000  1
  V  V853  1  0.41666667  0.91666667  0.08333333  1
  V  V854  1  0.41666667  0.91666667  0.16666667  1
  V  V855  1  0.41666667  0.91666667  0.25000000  1
  W  W856  1  0.41666667  0.91666667  0.33333333  1
  V  V857  1  0.41666667  0.91666667  0.41666667  1
  V  V858  1  0.41666667  0.91666667  0.50000000  1
  V  V859  1  0.41666667  0.91666667  0.58333333  1
  V  V860  1  0.41666667  0.91666667  0.66666667  1
  V  V861  1  0.41666667  0.91666667  0.75000000  1
  V  V862  1  0.41666667  0.91666667  0.83333333  1
  V  V863  1  0.41666667  0.91666667  0.91666667  1
  Ti  Ti864  1  0.50000000  0.00000000  0.00000000  1
  V  V865  1  0.50000000  0.00000000  0.08333333  1
  V  V866  1  0.50000000  0.00000000  0.16666667  1
  V  V867  1  0.50000000  0.00000000  0.25000000  1
  V  V868  1  0.50000000  0.00000000  0.33333333  1
  W  W869  1  0.50000000  0.00000000  0.41666667  1
  V  V870  1  0.50000000  0.00000000  0.50000000  1
  V  V871  1  0.50000000  0.00000000  0.58333333  1
  V  V872  1  0.50000000  0.00000000  0.66666667  1
  W  W873  1  0.50000000  0.00000000  0.75000000  1
  V  V874  1  0.50000000  0.00000000  0.83333333  1
  Ti  Ti875  1  0.50000000  0.00000000  0.91666667  1
  V  V876  1  0.50000000  0.08333333  0.00000000  1
  V  V877  1  0.50000000  0.08333333  0.08333333  1
  V  V878  1  0.50000000  0.08333333  0.16666667  1
  V  V879  1  0.50000000  0.08333333  0.25000000  1
  V  V880  1  0.50000000  0.08333333  0.33333333  1
  W  W881  1  0.50000000  0.08333333  0.41666667  1
  V  V882  1  0.50000000  0.08333333  0.50000000  1
  V  V883  1  0.50000000  0.08333333  0.58333333  1
  W  W884  1  0.50000000  0.08333333  0.66666667  1
  V  V885  1  0.50000000  0.08333333  0.75000000  1
  V  V886  1  0.50000000  0.08333333  0.83333333  1
  V  V887  1  0.50000000  0.08333333  0.91666667  1
  V  V888  1  0.50000000  0.16666667  0.00000000  1
  V  V889  1  0.50000000  0.16666667  0.08333333  1
  V  V890  1  0.50000000  0.16666667  0.16666667  1
  V  V891  1  0.50000000  0.16666667  0.25000000  1
  V  V892  1  0.50000000  0.16666667  0.33333333  1
  V  V893  1  0.50000000  0.16666667  0.41666667  1
  V  V894  1  0.50000000  0.16666667  0.50000000  1
  V  V895  1  0.50000000  0.16666667  0.58333333  1
  V  V896  1  0.50000000  0.16666667  0.66666667  1
  W  W897  1  0.50000000  0.16666667  0.75000000  1
  V  V898  1  0.50000000  0.16666667  0.83333333  1
  V  V899  1  0.50000000  0.16666667  0.91666667  1
  V  V900  1  0.50000000  0.25000000  0.00000000  1
  V  V901  1  0.50000000  0.25000000  0.08333333  1
  V  V902  1  0.50000000  0.25000000  0.16666667  1
  V  V903  1  0.50000000  0.25000000  0.25000000  1
  V  V904  1  0.50000000  0.25000000  0.33333333  1
  V  V905  1  0.50000000  0.25000000  0.41666667  1
  V  V906  1  0.50000000  0.25000000  0.50000000  1
  V  V907  1  0.50000000  0.25000000  0.58333333  1
  W  W908  1  0.50000000  0.25000000  0.66666667  1
  V  V909  1  0.50000000  0.25000000  0.75000000  1
  V  V910  1  0.50000000  0.25000000  0.83333333  1
  V  V911  1  0.50000000  0.25000000  0.91666667  1
  V  V912  1  0.50000000  0.33333333  1.00000000  1
  V  V913  1  0.50000000  0.33333333  0.08333333  1
  V  V914  1  0.50000000  0.33333333  0.16666667  1
  V  V915  1  0.50000000  0.33333333  0.25000000  1
  V  V916  1  0.50000000  0.33333333  0.33333333  1
  V  V917  1  0.50000000  0.33333333  0.41666667  1
  V  V918  1  0.50000000  0.33333333  0.50000000  1
  W  W919  1  0.50000000  0.33333333  0.58333333  1
  V  V920  1  0.50000000  0.33333333  0.66666667  1
  V  V921  1  0.50000000  0.33333333  0.75000000  1
  V  V922  1  0.50000000  0.33333333  0.83333333  1
  V  V923  1  0.50000000  0.33333333  0.91666667  1
  V  V924  1  0.50000000  0.41666667  1.00000000  1
  V  V925  1  0.50000000  0.41666667  0.08333333  1
  V  V926  1  0.50000000  0.41666667  0.16666667  1
  V  V927  1  0.50000000  0.41666667  0.25000000  1
  V  V928  1  0.50000000  0.41666667  0.33333333  1
  W  W929  1  0.50000000  0.41666667  0.41666667  1
  V  V930  1  0.50000000  0.41666667  0.50000000  1
  V  V931  1  0.50000000  0.41666667  0.58333333  1
  V  V932  1  0.50000000  0.41666667  0.66666667  1
  V  V933  1  0.50000000  0.41666667  0.75000000  1
  V  V934  1  0.50000000  0.41666667  0.83333333  1
  V  V935  1  0.50000000  0.41666667  0.91666667  1
  V  V936  1  0.50000000  0.50000000  1.00000000  1
  V  V937  1  0.50000000  0.50000000  0.08333333  1
  V  V938  1  0.50000000  0.50000000  0.16666667  1
  V  V939  1  0.50000000  0.50000000  0.25000000  1
  V  V940  1  0.50000000  0.50000000  0.33333333  1
  V  V941  1  0.50000000  0.50000000  0.41666667  1
  V  V942  1  0.50000000  0.50000000  0.50000000  1
  V  V943  1  0.50000000  0.50000000  0.58333333  1
  V  V944  1  0.50000000  0.50000000  0.66666667  1
  Ti  Ti945  1  0.50000000  0.50000000  0.75000000  1
  V  V946  1  0.50000000  0.50000000  0.83333333  1
  Ti  Ti947  1  0.50000000  0.50000000  0.91666667  1
  Zr  Zr948  1  0.50000000  0.58333333  0.00000000  1
  V  V949  1  0.50000000  0.58333333  0.08333333  1
  V  V950  1  0.50000000  0.58333333  0.16666667  1
  V  V951  1  0.50000000  0.58333333  0.25000000  1
  V  V952  1  0.50000000  0.58333333  0.33333333  1
  V  V953  1  0.50000000  0.58333333  0.41666667  1
  W  W954  1  0.50000000  0.58333333  0.50000000  1
  W  W955  1  0.50000000  0.58333333  0.58333333  1
  V  V956  1  0.50000000  0.58333333  0.66666667  1
  Ti  Ti957  1  0.50000000  0.58333333  0.75000000  1
  Zr  Zr958  1  0.50000000  0.58333333  0.83333333  1
  Zr  Zr959  1  0.50000000  0.58333333  0.91666667  1
  Zr  Zr960  1  0.50000000  0.66666667  1.00000000  1
  Zr  Zr961  1  0.50000000  0.66666667  0.08333333  1
  V  V962  1  0.50000000  0.66666667  0.16666667  1
  W  W963  1  0.50000000  0.66666667  0.25000000  1
  V  V964  1  0.50000000  0.66666667  0.33333333  1
  V  V965  1  0.50000000  0.66666667  0.41666667  1
  V  V966  1  0.50000000  0.66666667  0.50000000  1
  V  V967  1  0.50000000  0.66666667  0.58333333  1
  V  V968  1  0.50000000  0.66666667  0.66666667  1
  Ti  Ti969  1  0.50000000  0.66666667  0.75000000  1
  Zr  Zr970  1  0.50000000  0.66666667  0.83333333  1
  Zr  Zr971  1  0.50000000  0.66666667  0.91666667  1
  Zr  Zr972  1  0.50000000  0.75000000  1.00000000  1
  Zr  Zr973  1  0.50000000  0.75000000  0.08333333  1
  Ti  Ti974  1  0.50000000  0.75000000  0.16666667  1
  V  V975  1  0.50000000  0.75000000  0.25000000  1
  W  W976  1  0.50000000  0.75000000  0.33333333  1
  V  V977  1  0.50000000  0.75000000  0.41666667  1
  V  V978  1  0.50000000  0.75000000  0.50000000  1
  Cr  Cr979  1  0.50000000  0.75000000  0.58333333  1
  V  V980  1  0.50000000  0.75000000  0.66666667  1
  Ti  Ti981  1  0.50000000  0.75000000  0.75000000  1
  Zr  Zr982  1  0.50000000  0.75000000  0.83333333  1
  Zr  Zr983  1  0.50000000  0.75000000  0.91666667  1
  Zr  Zr984  1  0.50000000  0.83333333  0.00000000  1
  Zr  Zr985  1  0.50000000  0.83333333  0.08333333  1
  Ti  Ti986  1  0.50000000  0.83333333  0.16666667  1
  V  V987  1  0.50000000  0.83333333  0.25000000  1
  V  V988  1  0.50000000  0.83333333  0.33333333  1
  V  V989  1  0.50000000  0.83333333  0.41666667  1
  W  W990  1  0.50000000  0.83333333  0.50000000  1
  W  W991  1  0.50000000  0.83333333  0.58333333  1
  V  V992  1  0.50000000  0.83333333  0.66666667  1
  V  V993  1  0.50000000  0.83333333  0.75000000  1
  Ti  Ti994  1  0.50000000  0.83333333  0.83333333  1
  Zr  Zr995  1  0.50000000  0.83333333  0.91666667  1
  Zr  Zr996  1  0.50000000  0.91666667  0.00000000  1
  Zr  Zr997  1  0.50000000  0.91666667  0.08333333  1
  V  V998  1  0.50000000  0.91666667  0.16666667  1
  V  V999  1  0.50000000  0.91666667  0.25000000  1
  V  V1000  1  0.50000000  0.91666667  0.33333333  1
  V  V1001  1  0.50000000  0.91666667  0.41666667  1
  W  W1002  1  0.50000000  0.91666667  0.50000000  1
  V  V1003  1  0.50000000  0.91666667  0.58333333  1
  V  V1004  1  0.50000000  0.91666667  0.66666667  1
  V  V1005  1  0.50000000  0.91666667  0.75000000  1
  Ti  Ti1006  1  0.50000000  0.91666667  0.83333333  1
  Ti  Ti1007  1  0.50000000  0.91666667  0.91666667  1
  Zr  Zr1008  1  0.58333333  0.00000000  0.00000000  1
  Zr  Zr1009  1  0.58333333  0.00000000  0.08333333  1
  Zr  Zr1010  1  0.58333333  0.00000000  0.16666667  1
  W  W1011  1  0.58333333  0.00000000  0.25000000  1
  V  V1012  1  0.58333333  0.00000000  0.33333333  1
  W  W1013  1  0.58333333  0.00000000  0.41666667  1
  Cr  Cr1014  1  0.58333333  0.00000000  0.50000000  1
  W  W1015  1  0.58333333  0.00000000  0.58333333  1
  V  V1016  1  0.58333333  0.00000000  0.66666667  1
  V  V1017  1  0.58333333  0.00000000  0.75000000  1
  V  V1018  1  0.58333333  0.00000000  0.83333333  1
  Ti  Ti1019  1  0.58333333  0.00000000  0.91666667  1
  V  V1020  1  0.58333333  0.08333333  0.00000000  1
  Ti  Ti1021  1  0.58333333  0.08333333  0.08333333  1
  V  V1022  1  0.58333333  0.08333333  0.16666667  1
  W  W1023  1  0.58333333  0.08333333  0.25000000  1
  V  V1024  1  0.58333333  0.08333333  0.33333333  1
  V  V1025  1  0.58333333  0.08333333  0.41666667  1
  W  W1026  1  0.58333333  0.08333333  0.50000000  1
  V  V1027  1  0.58333333  0.08333333  0.58333333  1
  V  V1028  1  0.58333333  0.08333333  0.66666667  1
  V  V1029  1  0.58333333  0.08333333  0.75000000  1
  V  V1030  1  0.58333333  0.08333333  0.83333333  1
  Ti  Ti1031  1  0.58333333  0.08333333  0.91666667  1
  V  V1032  1  0.58333333  0.16666667  0.00000000  1
  V  V1033  1  0.58333333  0.16666667  0.08333333  1
  V  V1034  1  0.58333333  0.16666667  0.16666667  1
  V  V1035  1  0.58333333  0.16666667  0.25000000  1
  V  V1036  1  0.58333333  0.16666667  0.33333333  1
  V  V1037  1  0.58333333  0.16666667  0.41666667  1
  V  V1038  1  0.58333333  0.16666667  0.50000000  1
  V  V1039  1  0.58333333  0.16666667  0.58333333  1
  W  W1040  1  0.58333333  0.16666667  0.66666667  1
  V  V1041  1  0.58333333  0.16666667  0.75000000  1
  V  V1042  1  0.58333333  0.16666667  0.83333333  1
  V  V1043  1  0.58333333  0.16666667  0.91666667  1
  V  V1044  1  0.58333333  0.25000000  0.00000000  1
  V  V1045  1  0.58333333  0.25000000  0.08333333  1
  V  V1046  1  0.58333333  0.25000000  0.16666667  1
  W  W1047  1  0.58333333  0.25000000  0.25000000  1
  V  V1048  1  0.58333333  0.25000000  0.33333333  1
  W  W1049  1  0.58333333  0.25000000  0.41666667  1
  V  V1050  1  0.58333333  0.25000000  0.50000000  1
  V  V1051  1  0.58333333  0.25000000  0.58333333  1
  V  V1052  1  0.58333333  0.25000000  0.66666667  1
  V  V1053  1  0.58333333  0.25000000  0.75000000  1
  V  V1054  1  0.58333333  0.25000000  0.83333333  1
  V  V1055  1  0.58333333  0.25000000  0.91666667  1
  W  W1056  1  0.58333333  0.33333333  1.00000000  1
  V  V1057  1  0.58333333  0.33333333  0.08333333  1
  V  V1058  1  0.58333333  0.33333333  0.16666667  1
  W  W1059  1  0.58333333  0.33333333  0.25000000  1
  V  V1060  1  0.58333333  0.33333333  0.33333333  1
  V  V1061  1  0.58333333  0.33333333  0.41666667  1
  V  V1062  1  0.58333333  0.33333333  0.50000000  1
  V  V1063  1  0.58333333  0.33333333  0.58333333  1
  W  W1064  1  0.58333333  0.33333333  0.66666667  1
  V  V1065  1  0.58333333  0.33333333  0.75000000  1
  V  V1066  1  0.58333333  0.33333333  0.83333333  1
  W  W1067  1  0.58333333  0.33333333  0.91666667  1
  V  V1068  1  0.58333333  0.41666667  0.00000000  1
  V  V1069  1  0.58333333  0.41666667  0.08333333  1
  V  V1070  1  0.58333333  0.41666667  0.16666667  1
  V  V1071  1  0.58333333  0.41666667  0.25000000  1
  V  V1072  1  0.58333333  0.41666667  0.33333333  1
  V  V1073  1  0.58333333  0.41666667  0.41666667  1
  V  V1074  1  0.58333333  0.41666667  0.50000000  1
  V  V1075  1  0.58333333  0.41666667  0.58333333  1
  V  V1076  1  0.58333333  0.41666667  0.66666667  1
  V  V1077  1  0.58333333  0.41666667  0.75000000  1
  W  W1078  1  0.58333333  0.41666667  0.83333333  1
  V  V1079  1  0.58333333  0.41666667  0.91666667  1
  V  V1080  1  0.58333333  0.50000000  0.00000000  1
  V  V1081  1  0.58333333  0.50000000  0.08333333  1
  V  V1082  1  0.58333333  0.50000000  0.16666667  1
  W  W1083  1  0.58333333  0.50000000  0.25000000  1
  Cr  Cr1084  1  0.58333333  0.50000000  0.33333333  1
  V  V1085  1  0.58333333  0.50000000  0.41666667  1
  V  V1086  1  0.58333333  0.50000000  0.50000000  1
  V  V1087  1  0.58333333  0.50000000  0.58333333  1
  V  V1088  1  0.58333333  0.50000000  0.66666667  1
  V  V1089  1  0.58333333  0.50000000  0.75000000  1
  Ti  Ti1090  1  0.58333333  0.50000000  0.83333333  1
  Ti  Ti1091  1  0.58333333  0.50000000  0.91666667  1
  Zr  Zr1092  1  0.58333333  0.58333333  0.00000000  1
  Ti  Ti1093  1  0.58333333  0.58333333  0.08333333  1
  V  V1094  1  0.58333333  0.58333333  0.16666667  1
  V  V1095  1  0.58333333  0.58333333  0.25000000  1
  V  V1096  1  0.58333333  0.58333333  0.33333333  1
  V  V1097  1  0.58333333  0.58333333  0.41666667  1
  W  W1098  1  0.58333333  0.58333333  0.50000000  1
  V  V1099  1  0.58333333  0.58333333  0.58333333  1
  V  V1100  1  0.58333333  0.58333333  0.66666667  1
  Ti  Ti1101  1  0.58333333  0.58333333  0.75000000  1
  Zr  Zr1102  1  0.58333333  0.58333333  0.83333333  1
  Zr  Zr1103  1  0.58333333  0.58333333  0.91666667  1
  Zr  Zr1104  1  0.58333333  0.66666667  1.00000000  1
  Zr  Zr1105  1  0.58333333  0.66666667  0.08333333  1
  Ti  Ti1106  1  0.58333333  0.66666667  0.16666667  1
  V  V1107  1  0.58333333  0.66666667  0.25000000  1
  V  V1108  1  0.58333333  0.66666667  0.33333333  1
  V  V1109  1  0.58333333  0.66666667  0.41666667  1
  W  W1110  1  0.58333333  0.66666667  0.50000000  1
  V  V1111  1  0.58333333  0.66666667  0.58333333  1
  V  V1112  1  0.58333333  0.66666667  0.66666667  1
  Ti  Ti1113  1  0.58333333  0.66666667  0.75000000  1
  Zr  Zr1114  1  0.58333333  0.66666667  0.83333333  1
  Zr  Zr1115  1  0.58333333  0.66666667  0.91666667  1
  Zr  Zr1116  1  0.58333333  0.75000000  1.00000000  1
  Zr  Zr1117  1  0.58333333  0.75000000  0.08333333  1
  Zr  Zr1118  1  0.58333333  0.75000000  0.16666667  1
  V  V1119  1  0.58333333  0.75000000  0.25000000  1
  V  V1120  1  0.58333333  0.75000000  0.33333333  1
  V  V1121  1  0.58333333  0.75000000  0.41666667  1
  V  V1122  1  0.58333333  0.75000000  0.50000000  1
  V  V1123  1  0.58333333  0.75000000  0.58333333  1
  V  V1124  1  0.58333333  0.75000000  0.66666667  1
  Ti  Ti1125  1  0.58333333  0.75000000  0.75000000  1
  Zr  Zr1126  1  0.58333333  0.75000000  0.83333333  1
  Zr  Zr1127  1  0.58333333  0.75000000  0.91666667  1
  Zr  Zr1128  1  0.58333333  0.83333333  0.00000000  1
  Zr  Zr1129  1  0.58333333  0.83333333  0.08333333  1
  Zr  Zr1130  1  0.58333333  0.83333333  0.16666667  1
  Ti  Ti1131  1  0.58333333  0.83333333  0.25000000  1
  V  V1132  1  0.58333333  0.83333333  0.33333333  1
  V  V1133  1  0.58333333  0.83333333  0.41666667  1
  V  V1134  1  0.58333333  0.83333333  0.50000000  1
  V  V1135  1  0.58333333  0.83333333  0.58333333  1
  V  V1136  1  0.58333333  0.83333333  0.66666667  1
  Ti  Ti1137  1  0.58333333  0.83333333  0.75000000  1
  Zr  Zr1138  1  0.58333333  0.83333333  0.83333333  1
  Zr  Zr1139  1  0.58333333  0.83333333  0.91666667  1
  Zr  Zr1140  1  0.58333333  0.91666667  1.00000000  1
  Zr  Zr1141  1  0.58333333  0.91666667  0.08333333  1
  Zr  Zr1142  1  0.58333333  0.91666667  0.16666667  1
  Ti  Ti1143  1  0.58333333  0.91666667  0.25000000  1
  V  V1144  1  0.58333333  0.91666667  0.33333333  1
  W  W1145  1  0.58333333  0.91666667  0.41666667  1
  V  V1146  1  0.58333333  0.91666667  0.50000000  1
  V  V1147  1  0.58333333  0.91666667  0.58333333  1
  V  V1148  1  0.58333333  0.91666667  0.66666667  1
  V  V1149  1  0.58333333  0.91666667  0.75000000  1
  Ti  Ti1150  1  0.58333333  0.91666667  0.83333333  1
  Zr  Zr1151  1  0.58333333  0.91666667  0.91666667  1
  Zr  Zr1152  1  0.66666667  0.00000000  0.00000000  1
  Zr  Zr1153  1  0.66666667  0.00000000  0.08333333  1
  Zr  Zr1154  1  0.66666667  0.00000000  0.16666667  1
  Zr  Zr1155  1  0.66666667  0.00000000  0.25000000  1
  V  V1156  1  0.66666667  0.00000000  0.33333333  1
  V  V1157  1  0.66666667  0.00000000  0.41666667  1
  V  V1158  1  0.66666667  0.00000000  0.50000000  1
  V  V1159  1  0.66666667  0.00000000  0.58333333  1
  W  W1160  1  0.66666667  0.00000000  0.66666667  1
  V  V1161  1  0.66666667  0.00000000  0.75000000  1
  Ti  Ti1162  1  0.66666667  0.00000000  0.83333333  1
  Zr  Zr1163  1  0.66666667  0.00000000  0.91666667  1
  Zr  Zr1164  1  0.66666667  0.08333333  0.00000000  1
  Zr  Zr1165  1  0.66666667  0.08333333  0.08333333  1
  Zr  Zr1166  1  0.66666667  0.08333333  0.16666667  1
  Ti  Ti1167  1  0.66666667  0.08333333  0.25000000  1
  Ti  Ti1168  1  0.66666667  0.08333333  0.33333333  1
  V  V1169  1  0.66666667  0.08333333  0.41666667  1
  V  V1170  1  0.66666667  0.08333333  0.50000000  1
  V  V1171  1  0.66666667  0.08333333  0.58333333  1
  V  V1172  1  0.66666667  0.08333333  0.66666667  1
  V  V1173  1  0.66666667  0.08333333  0.75000000  1
  V  V1174  1  0.66666667  0.08333333  0.83333333  1
  Ti  Ti1175  1  0.66666667  0.08333333  0.91666667  1
  Ti  Ti1176  1  0.66666667  0.16666667  0.00000000  1
  V  V1177  1  0.66666667  0.16666667  0.08333333  1
  Ti  Ti1178  1  0.66666667  0.16666667  0.16666667  1
  Ti  Ti1179  1  0.66666667  0.16666667  0.25000000  1
  V  V1180  1  0.66666667  0.16666667  0.33333333  1
  V  V1181  1  0.66666667  0.16666667  0.41666667  1
  V  V1182  1  0.66666667  0.16666667  0.50000000  1
  V  V1183  1  0.66666667  0.16666667  0.58333333  1
  V  V1184  1  0.66666667  0.16666667  0.66666667  1
  W  W1185  1  0.66666667  0.16666667  0.75000000  1
  V  V1186  1  0.66666667  0.16666667  0.83333333  1
  V  V1187  1  0.66666667  0.16666667  0.91666667  1
  W  W1188  1  0.66666667  0.25000000  0.00000000  1
  V  V1189  1  0.66666667  0.25000000  0.08333333  1
  V  V1190  1  0.66666667  0.25000000  0.16666667  1
  V  V1191  1  0.66666667  0.25000000  0.25000000  1
  V  V1192  1  0.66666667  0.25000000  0.33333333  1
  V  V1193  1  0.66666667  0.25000000  0.41666667  1
  V  V1194  1  0.66666667  0.25000000  0.50000000  1
  V  V1195  1  0.66666667  0.25000000  0.58333333  1
  W  W1196  1  0.66666667  0.25000000  0.66666667  1
  V  V1197  1  0.66666667  0.25000000  0.75000000  1
  V  V1198  1  0.66666667  0.25000000  0.83333333  1
  V  V1199  1  0.66666667  0.25000000  0.91666667  1
  V  V1200  1  0.66666667  0.33333333  1.00000000  1
  V  V1201  1  0.66666667  0.33333333  0.08333333  1
  W  W1202  1  0.66666667  0.33333333  0.16666667  1
  Cr  Cr1203  1  0.66666667  0.33333333  0.25000000  1
  V  V1204  1  0.66666667  0.33333333  0.33333333  1
  V  V1205  1  0.66666667  0.33333333  0.41666667  1
  Cr  Cr1206  1  0.66666667  0.33333333  0.50000000  1
  V  V1207  1  0.66666667  0.33333333  0.58333333  1
  V  V1208  1  0.66666667  0.33333333  0.66666667  1
  V  V1209  1  0.66666667  0.33333333  0.75000000  1
  V  V1210  1  0.66666667  0.33333333  0.83333333  1
  V  V1211  1  0.66666667  0.33333333  0.91666667  1
  V  V1212  1  0.66666667  0.41666667  0.00000000  1
  V  V1213  1  0.66666667  0.41666667  0.08333333  1
  V  V1214  1  0.66666667  0.41666667  0.16666667  1
  W  W1215  1  0.66666667  0.41666667  0.25000000  1
  Cr  Cr1216  1  0.66666667  0.41666667  0.33333333  1
  Cr  Cr1217  1  0.66666667  0.41666667  0.41666667  1
  Cr  Cr1218  1  0.66666667  0.41666667  0.50000000  1
  V  V1219  1  0.66666667  0.41666667  0.58333333  1
  V  V1220  1  0.66666667  0.41666667  0.66666667  1
  V  V1221  1  0.66666667  0.41666667  0.75000000  1
  V  V1222  1  0.66666667  0.41666667  0.83333333  1
  V  V1223  1  0.66666667  0.41666667  0.91666667  1
  Ti  Ti1224  1  0.66666667  0.50000000  0.00000000  1
  V  V1225  1  0.66666667  0.50000000  0.08333333  1
  W  W1226  1  0.66666667  0.50000000  0.16666667  1
  V  V1227  1  0.66666667  0.50000000  0.25000000  1
  Cr  Cr1228  1  0.66666667  0.50000000  0.33333333  1
  Cr  Cr1229  1  0.66666667  0.50000000  0.41666667  1
  Cr  Cr1230  1  0.66666667  0.50000000  0.50000000  1
  V  V1231  1  0.66666667  0.50000000  0.58333333  1
  V  V1232  1  0.66666667  0.50000000  0.66666667  1
  V  V1233  1  0.66666667  0.50000000  0.75000000  1
  Ti  Ti1234  1  0.66666667  0.50000000  0.83333333  1
  V  V1235  1  0.66666667  0.50000000  0.91666667  1
  Zr  Zr1236  1  0.66666667  0.58333333  0.00000000  1
  Ti  Ti1237  1  0.66666667  0.58333333  0.08333333  1
  V  V1238  1  0.66666667  0.58333333  0.16666667  1
  V  V1239  1  0.66666667  0.58333333  0.25000000  1
  W  W1240  1  0.66666667  0.58333333  0.33333333  1
  Cr  Cr1241  1  0.66666667  0.58333333  0.41666667  1
  Cr  Cr1242  1  0.66666667  0.58333333  0.50000000  1
  Cr  Cr1243  1  0.66666667  0.58333333  0.58333333  1
  V  V1244  1  0.66666667  0.58333333  0.66666667  1
  Ti  Ti1245  1  0.66666667  0.58333333  0.75000000  1
  Ti  Ti1246  1  0.66666667  0.58333333  0.83333333  1
  Zr  Zr1247  1  0.66666667  0.58333333  0.91666667  1
  Zr  Zr1248  1  0.66666667  0.66666667  0.00000000  1
  Zr  Zr1249  1  0.66666667  0.66666667  0.08333333  1
  Ti  Ti1250  1  0.66666667  0.66666667  0.16666667  1
  V  V1251  1  0.66666667  0.66666667  0.25000000  1
  V  V1252  1  0.66666667  0.66666667  0.33333333  1
  V  V1253  1  0.66666667  0.66666667  0.41666667  1
  Cr  Cr1254  1  0.66666667  0.66666667  0.50000000  1
  V  V1255  1  0.66666667  0.66666667  0.58333333  1
  V  V1256  1  0.66666667  0.66666667  0.66666667  1
  Ti  Ti1257  1  0.66666667  0.66666667  0.75000000  1
  Zr  Zr1258  1  0.66666667  0.66666667  0.83333333  1
  Zr  Zr1259  1  0.66666667  0.66666667  0.91666667  1
  Zr  Zr1260  1  0.66666667  0.75000000  1.00000000  1
  Zr  Zr1261  1  0.66666667  0.75000000  0.08333333  1
  Zr  Zr1262  1  0.66666667  0.75000000  0.16666667  1
  Ti  Ti1263  1  0.66666667  0.75000000  0.25000000  1
  V  V1264  1  0.66666667  0.75000000  0.33333333  1
  V  V1265  1  0.66666667  0.75000000  0.41666667  1
  V  V1266  1  0.66666667  0.75000000  0.50000000  1
  V  V1267  1  0.66666667  0.75000000  0.58333333  1
  V  V1268  1  0.66666667  0.75000000  0.66666667  1
  Ti  Ti1269  1  0.66666667  0.75000000  0.75000000  1
  Zr  Zr1270  1  0.66666667  0.75000000  0.83333333  1
  Zr  Zr1271  1  0.66666667  0.75000000  0.91666667  1
  Zr  Zr1272  1  0.66666667  0.83333333  0.00000000  1
  Zr  Zr1273  1  0.66666667  0.83333333  0.08333333  1
  Zr  Zr1274  1  0.66666667  0.83333333  0.16666667  1
  Zr  Zr1275  1  0.66666667  0.83333333  0.25000000  1
  W  W1276  1  0.66666667  0.83333333  0.33333333  1
  V  V1277  1  0.66666667  0.83333333  0.41666667  1
  W  W1278  1  0.66666667  0.83333333  0.50000000  1
  V  V1279  1  0.66666667  0.83333333  0.58333333  1
  V  V1280  1  0.66666667  0.83333333  0.66666667  1
  V  V1281  1  0.66666667  0.83333333  0.75000000  1
  Zr  Zr1282  1  0.66666667  0.83333333  0.83333333  1
  Zr  Zr1283  1  0.66666667  0.83333333  0.91666667  1
  Zr  Zr1284  1  0.66666667  0.91666667  1.00000000  1
  Zr  Zr1285  1  0.66666667  0.91666667  0.08333333  1
  Zr  Zr1286  1  0.66666667  0.91666667  0.16666667  1
  Zr  Zr1287  1  0.66666667  0.91666667  0.25000000  1
  Ti  Ti1288  1  0.66666667  0.91666667  0.33333333  1
  W  W1289  1  0.66666667  0.91666667  0.41666667  1
  V  V1290  1  0.66666667  0.91666667  0.50000000  1
  V  V1291  1  0.66666667  0.91666667  0.58333333  1
  V  V1292  1  0.66666667  0.91666667  0.66666667  1
  V  V1293  1  0.66666667  0.91666667  0.75000000  1
  Zr  Zr1294  1  0.66666667  0.91666667  0.83333333  1
  Zr  Zr1295  1  0.66666667  0.91666667  0.91666667  1
  Zr  Zr1296  1  0.75000000  0.00000000  0.00000000  1
  Zr  Zr1297  1  0.75000000  0.00000000  0.08333333  1
  Zr  Zr1298  1  0.75000000  0.00000000  0.16666667  1
  Zr  Zr1299  1  0.75000000  0.00000000  0.25000000  1
  Zr  Zr1300  1  0.75000000  0.00000000  0.33333333  1
  V  V1301  1  0.75000000  0.00000000  0.41666667  1
  V  V1302  1  0.75000000  0.00000000  0.50000000  1
  V  V1303  1  0.75000000  0.00000000  0.58333333  1
  V  V1304  1  0.75000000  0.00000000  0.66666667  1
  V  V1305  1  0.75000000  0.00000000  0.75000000  1
  V  V1306  1  0.75000000  0.00000000  0.83333333  1
  Zr  Zr1307  1  0.75000000  0.00000000  0.91666667  1
  Zr  Zr1308  1  0.75000000  0.08333333  0.00000000  1
  Zr  Zr1309  1  0.75000000  0.08333333  0.08333333  1
  Zr  Zr1310  1  0.75000000  0.08333333  0.16666667  1
  Zr  Zr1311  1  0.75000000  0.08333333  0.25000000  1
  Ti  Ti1312  1  0.75000000  0.08333333  0.33333333  1
  V  V1313  1  0.75000000  0.08333333  0.41666667  1
  V  V1314  1  0.75000000  0.08333333  0.50000000  1
  V  V1315  1  0.75000000  0.08333333  0.58333333  1
  V  V1316  1  0.75000000  0.08333333  0.66666667  1
  V  V1317  1  0.75000000  0.08333333  0.75000000  1
  Ti  Ti1318  1  0.75000000  0.08333333  0.83333333  1
  Zr  Zr1319  1  0.75000000  0.08333333  0.91666667  1
  Zr  Zr1320  1  0.75000000  0.16666667  0.00000000  1
  Zr  Zr1321  1  0.75000000  0.16666667  0.08333333  1
  Zr  Zr1322  1  0.75000000  0.16666667  0.16666667  1
  Ti  Ti1323  1  0.75000000  0.16666667  0.25000000  1
  Ti  Ti1324  1  0.75000000  0.16666667  0.33333333  1
  W  W1325  1  0.75000000  0.16666667  0.41666667  1
  V  V1326  1  0.75000000  0.16666667  0.50000000  1
  V  V1327  1  0.75000000  0.16666667  0.58333333  1
  W  W1328  1  0.75000000  0.16666667  0.66666667  1
  V  V1329  1  0.75000000  0.16666667  0.75000000  1
  V  V1330  1  0.75000000  0.16666667  0.83333333  1
  Ti  Ti1331  1  0.75000000  0.16666667  0.91666667  1
  V  V1332  1  0.75000000  0.25000000  0.00000000  1
  V  V1333  1  0.75000000  0.25000000  0.08333333  1
  V  V1334  1  0.75000000  0.25000000  0.16666667  1
  Ti  Ti1335  1  0.75000000  0.25000000  0.25000000  1
  V  V1336  1  0.75000000  0.25000000  0.33333333  1
  V  V1337  1  0.75000000  0.25000000  0.41666667  1
  V  V1338  1  0.75000000  0.25000000  0.50000000  1
  W  W1339  1  0.75000000  0.25000000  0.58333333  1
  V  V1340  1  0.75000000  0.25000000  0.66666667  1
  V  V1341  1  0.75000000  0.25000000  0.75000000  1
  V  V1342  1  0.75000000  0.25000000  0.83333333  1
  V  V1343  1  0.75000000  0.25000000  0.91666667  1
  V  V1344  1  0.75000000  0.33333333  0.00000000  1
  W  W1345  1  0.75000000  0.33333333  0.08333333  1
  W  W1346  1  0.75000000  0.33333333  0.16666667  1
  V  V1347  1  0.75000000  0.33333333  0.25000000  1
  Cr  Cr1348  1  0.75000000  0.33333333  0.33333333  1
  Cr  Cr1349  1  0.75000000  0.33333333  0.41666667  1
  V  V1350  1  0.75000000  0.33333333  0.50000000  1
  V  V1351  1  0.75000000  0.33333333  0.58333333  1
  V  V1352  1  0.75000000  0.33333333  0.66666667  1
  V  V1353  1  0.75000000  0.33333333  0.75000000  1
  V  V1354  1  0.75000000  0.33333333  0.83333333  1
  V  V1355  1  0.75000000  0.33333333  0.91666667  1
  V  V1356  1  0.75000000  0.41666667  0.00000000  1
  V  V1357  1  0.75000000  0.41666667  0.08333333  1
  V  V1358  1  0.75000000  0.41666667  0.16666667  1
  Cr  Cr1359  1  0.75000000  0.41666667  0.25000000  1
  Cr  Cr1360  1  0.75000000  0.41666667  0.33333333  1
  Cr  Cr1361  1  0.75000000  0.41666667  0.41666667  1
  Cr  Cr1362  1  0.75000000  0.41666667  0.50000000  1
  V  V1363  1  0.75000000  0.41666667  0.58333333  1
  V  V1364  1  0.75000000  0.41666667  0.66666667  1
  V  V1365  1  0.75000000  0.41666667  0.75000000  1
  W  W1366  1  0.75000000  0.41666667  0.83333333  1
  V  V1367  1  0.75000000  0.41666667  0.91666667  1
  V  V1368  1  0.75000000  0.50000000  0.00000000  1
  V  V1369  1  0.75000000  0.50000000  0.08333333  1
  W  W1370  1  0.75000000  0.50000000  0.16666667  1
  V  V1371  1  0.75000000  0.50000000  0.25000000  1
  Cr  Cr1372  1  0.75000000  0.50000000  0.33333333  1
  Cr  Cr1373  1  0.75000000  0.50000000  0.41666667  1
  Cr  Cr1374  1  0.75000000  0.50000000  0.50000000  1
  Cr  Cr1375  1  0.75000000  0.50000000  0.58333333  1
  V  V1376  1  0.75000000  0.50000000  0.66666667  1
  V  V1377  1  0.75000000  0.50000000  0.75000000  1
  V  V1378  1  0.75000000  0.50000000  0.83333333  1
  V  V1379  1  0.75000000  0.50000000  0.91666667  1
  Zr  Zr1380  1  0.75000000  0.58333333  0.00000000  1
  V  V1381  1  0.75000000  0.58333333  0.08333333  1
  V  V1382  1  0.75000000  0.58333333  0.16666667  1
  V  V1383  1  0.75000000  0.58333333  0.25000000  1
  Cr  Cr1384  1  0.75000000  0.58333333  0.33333333  1
  Cr  Cr1385  1  0.75000000  0.58333333  0.41666667  1
  Cr  Cr1386  1  0.75000000  0.58333333  0.50000000  1
  Cr  Cr1387  1  0.75000000  0.58333333  0.58333333  1
  V  V1388  1  0.75000000  0.58333333  0.66666667  1
  V  V1389  1  0.75000000  0.58333333  0.75000000  1
  Ti  Ti1390  1  0.75000000  0.58333333  0.83333333  1
  Ti  Ti1391  1  0.75000000  0.58333333  0.91666667  1
  Zr  Zr1392  1  0.75000000  0.66666667  0.00000000  1
  Zr  Zr1393  1  0.75000000  0.66666667  0.08333333  1
  Ti  Ti1394  1  0.75000000  0.66666667  0.16666667  1
  V  V1395  1  0.75000000  0.66666667  0.25000000  1
  Cr  Cr1396  1  0.75000000  0.66666667  0.33333333  1
  Cr  Cr1397  1  0.75000000  0.66666667  0.41666667  1
  Cr  Cr1398  1  0.75000000  0.66666667  0.50000000  1
  Cr  Cr1399  1  0.75000000  0.66666667  0.58333333  1
  V  V1400  1  0.75000000  0.66666667  0.66666667  1
  Ti  Ti1401  1  0.75000000  0.66666667  0.75000000  1
  Ti  Ti1402  1  0.75000000  0.66666667  0.83333333  1
  Zr  Zr1403  1  0.75000000  0.66666667  0.91666667  1
  Zr  Zr1404  1  0.75000000  0.75000000  1.00000000  1
  Zr  Zr1405  1  0.75000000  0.75000000  0.08333333  1
  Zr  Zr1406  1  0.75000000  0.75000000  0.16666667  1
  Ti  Ti1407  1  0.75000000  0.75000000  0.25000000  1
  V  V1408  1  0.75000000  0.75000000  0.33333333  1
  Cr  Cr1409  1  0.75000000  0.75000000  0.41666667  1
  Cr  Cr1410  1  0.75000000  0.75000000  0.50000000  1
  Cr  Cr1411  1  0.75000000  0.75000000  0.58333333  1
  V  V1412  1  0.75000000  0.75000000  0.66666667  1
  V  V1413  1  0.75000000  0.75000000  0.75000000  1
  Zr  Zr1414  1  0.75000000  0.75000000  0.83333333  1
  Zr  Zr1415  1  0.75000000  0.75000000  0.91666667  1
  Zr  Zr1416  1  0.75000000  0.83333333  1.00000000  1
  Zr  Zr1417  1  0.75000000  0.83333333  0.08333333  1
  Zr  Zr1418  1  0.75000000  0.83333333  0.16666667  1
  Zr  Zr1419  1  0.75000000  0.83333333  0.25000000  1
  V  V1420  1  0.75000000  0.83333333  0.33333333  1
  V  V1421  1  0.75000000  0.83333333  0.41666667  1
  W  W1422  1  0.75000000  0.83333333  0.50000000  1
  W  W1423  1  0.75000000  0.83333333  0.58333333  1
  V  V1424  1  0.75000000  0.83333333  0.66666667  1
  V  V1425  1  0.75000000  0.83333333  0.75000000  1
  Zr  Zr1426  1  0.75000000  0.83333333  0.83333333  1
  Zr  Zr1427  1  0.75000000  0.83333333  0.91666667  1
  Zr  Zr1428  1  0.75000000  0.91666667  0.00000000  1
  Zr  Zr1429  1  0.75000000  0.91666667  0.08333333  1
  Zr  Zr1430  1  0.75000000  0.91666667  0.16666667  1
  Zr  Zr1431  1  0.75000000  0.91666667  0.25000000  1
  Ti  Ti1432  1  0.75000000  0.91666667  0.33333333  1
  V  V1433  1  0.75000000  0.91666667  0.41666667  1
  W  W1434  1  0.75000000  0.91666667  0.50000000  1
  V  V1435  1  0.75000000  0.91666667  0.58333333  1
  V  V1436  1  0.75000000  0.91666667  0.66666667  1
  V  V1437  1  0.75000000  0.91666667  0.75000000  1
  Zr  Zr1438  1  0.75000000  0.91666667  0.83333333  1
  Zr  Zr1439  1  0.75000000  0.91666667  0.91666667  1
  Zr  Zr1440  1  0.83333333  0.00000000  1.00000000  1
  Zr  Zr1441  1  0.83333333  0.00000000  0.08333333  1
  Zr  Zr1442  1  0.83333333  0.00000000  0.16666667  1
  Zr  Zr1443  1  0.83333333  0.00000000  0.25000000  1
  Zr  Zr1444  1  0.83333333  0.00000000  0.33333333  1
  W  W1445  1  0.83333333  0.00000000  0.41666667  1
  V  V1446  1  0.83333333  0.00000000  0.50000000  1
  V  V1447  1  0.83333333  0.00000000  0.58333333  1
  V  V1448  1  0.83333333  0.00000000  0.66666667  1
  V  V1449  1  0.83333333  0.00000000  0.75000000  1
  V  V1450  1  0.83333333  0.00000000  0.83333333  1
  Zr  Zr1451  1  0.83333333  0.00000000  0.91666667  1
  Zr  Zr1452  1  0.83333333  0.08333333  1.00000000  1
  Zr  Zr1453  1  0.83333333  0.08333333  0.08333333  1
  Zr  Zr1454  1  0.83333333  0.08333333  0.16666667  1
  Zr  Zr1455  1  0.83333333  0.08333333  0.25000000  1
  Zr  Zr1456  1  0.83333333  0.08333333  0.33333333  1
  W  W1457  1  0.83333333  0.08333333  0.41666667  1
  V  V1458  1  0.83333333  0.08333333  0.50000000  1
  V  V1459  1  0.83333333  0.08333333  0.58333333  1
  V  V1460  1  0.83333333  0.08333333  0.66666667  1
  V  V1461  1  0.83333333  0.08333333  0.75000000  1
  V  V1462  1  0.83333333  0.08333333  0.83333333  1
  Zr  Zr1463  1  0.83333333  0.08333333  0.91666667  1
  Zr  Zr1464  1  0.83333333  0.16666667  1.00000000  1
  Zr  Zr1465  1  0.83333333  0.16666667  0.08333333  1
  Zr  Zr1466  1  0.83333333  0.16666667  0.16666667  1
  Zr  Zr1467  1  0.83333333  0.16666667  0.25000000  1
  Ti  Ti1468  1  0.83333333  0.16666667  0.33333333  1
  V  V1469  1  0.83333333  0.16666667  0.41666667  1
  V  V1470  1  0.83333333  0.16666667  0.50000000  1
  V  V1471  1  0.83333333  0.16666667  0.58333333  1
  V  V1472  1  0.83333333  0.16666667  0.66666667  1
  W  W1473  1  0.83333333  0.16666667  0.75000000  1
  V  V1474  1  0.83333333  0.16666667  0.83333333  1
  W  W1475  1  0.83333333  0.16666667  0.91666667  1
  V  V1476  1  0.83333333  0.25000000  0.00000000  1
  Zr  Zr1477  1  0.83333333  0.25000000  0.08333333  1
  Zr  Zr1478  1  0.83333333  0.25000000  0.16666667  1
  Ti  Ti1479  1  0.83333333  0.25000000  0.25000000  1
  V  V1480  1  0.83333333  0.25000000  0.33333333  1
  V  V1481  1  0.83333333  0.25000000  0.41666667  1
  V  V1482  1  0.83333333  0.25000000  0.50000000  1
  V  V1483  1  0.83333333  0.25000000  0.58333333  1
  V  V1484  1  0.83333333  0.25000000  0.66666667  1
  W  W1485  1  0.83333333  0.25000000  0.75000000  1
  V  V1486  1  0.83333333  0.25000000  0.83333333  1
  V  V1487  1  0.83333333  0.25000000  0.91666667  1
  W  W1488  1  0.83333333  0.33333333  1.00000000  1
  V  V1489  1  0.83333333  0.33333333  0.08333333  1
  V  V1490  1  0.83333333  0.33333333  0.16666667  1
  V  V1491  1  0.83333333  0.33333333  0.25000000  1
  W  W1492  1  0.83333333  0.33333333  0.33333333  1
  V  V1493  1  0.83333333  0.33333333  0.41666667  1
  V  V1494  1  0.83333333  0.33333333  0.50000000  1
  W  W1495  1  0.83333333  0.33333333  0.58333333  1
  V  V1496  1  0.83333333  0.33333333  0.66666667  1
  V  V1497  1  0.83333333  0.33333333  0.75000000  1
  V  V1498  1  0.83333333  0.33333333  0.83333333  1
  V  V1499  1  0.83333333  0.33333333  0.91666667  1
  V  V1500  1  0.83333333  0.41666667  0.00000000  1
  V  V1501  1  0.83333333  0.41666667  0.08333333  1
  V  V1502  1  0.83333333  0.41666667  0.16666667  1
  V  V1503  1  0.83333333  0.41666667  0.25000000  1
  Cr  Cr1504  1  0.83333333  0.41666667  0.33333333  1
  Cr  Cr1505  1  0.83333333  0.41666667  0.41666667  1
  Cr  Cr1506  1  0.83333333  0.41666667  0.50000000  1
  Cr  Cr1507  1  0.83333333  0.41666667  0.58333333  1
  V  V1508  1  0.83333333  0.41666667  0.66666667  1
  V  V1509  1  0.83333333  0.41666667  0.75000000  1
  W  W1510  1  0.83333333  0.41666667  0.83333333  1
  W  W1511  1  0.83333333  0.41666667  0.91666667  1
  V  V1512  1  0.83333333  0.50000000  0.00000000  1
  V  V1513  1  0.83333333  0.50000000  0.08333333  1
  V  V1514  1  0.83333333  0.50000000  0.16666667  1
  V  V1515  1  0.83333333  0.50000000  0.25000000  1
  Cr  Cr1516  1  0.83333333  0.50000000  0.33333333  1
  Cr  Cr1517  1  0.83333333  0.50000000  0.41666667  1
  Cr  Cr1518  1  0.83333333  0.50000000  0.50000000  1
  Cr  Cr1519  1  0.83333333  0.50000000  0.58333333  1
  Cr  Cr1520  1  0.83333333  0.50000000  0.66666667  1
  V  V1521  1  0.83333333  0.50000000  0.75000000  1
  V  V1522  1  0.83333333  0.50000000  0.83333333  1
  V  V1523  1  0.83333333  0.50000000  0.91666667  1
  V  V1524  1  0.83333333  0.58333333  1.00000000  1
  V  V1525  1  0.83333333  0.58333333  0.08333333  1
  V  V1526  1  0.83333333  0.58333333  0.16666667  1
  Cr  Cr1527  1  0.83333333  0.58333333  0.25000000  1
  Cr  Cr1528  1  0.83333333  0.58333333  0.33333333  1
  Cr  Cr1529  1  0.83333333  0.58333333  0.41666667  1
  Cr  Cr1530  1  0.83333333  0.58333333  0.50000000  1
  Cr  Cr1531  1  0.83333333  0.58333333  0.58333333  1
  Cr  Cr1532  1  0.83333333  0.58333333  0.66666667  1
  V  V1533  1  0.83333333  0.58333333  0.75000000  1
  V  V1534  1  0.83333333  0.58333333  0.83333333  1
  W  W1535  1  0.83333333  0.58333333  0.91666667  1
  Zr  Zr1536  1  0.83333333  0.66666667  1.00000000  1
  Zr  Zr1537  1  0.83333333  0.66666667  0.08333333  1
  Ti  Ti1538  1  0.83333333  0.66666667  0.16666667  1
  V  V1539  1  0.83333333  0.66666667  0.25000000  1
  Cr  Cr1540  1  0.83333333  0.66666667  0.33333333  1
  Cr  Cr1541  1  0.83333333  0.66666667  0.41666667  1
  Cr  Cr1542  1  0.83333333  0.66666667  0.50000000  1
  Cr  Cr1543  1  0.83333333  0.66666667  0.58333333  1
  Cr  Cr1544  1  0.83333333  0.66666667  0.66666667  1
  V  V1545  1  0.83333333  0.66666667  0.75000000  1
  Ti  Ti1546  1  0.83333333  0.66666667  0.83333333  1
  Ti  Ti1547  1  0.83333333  0.66666667  0.91666667  1
  Zr  Zr1548  1  0.83333333  0.75000000  1.00000000  1
  Zr  Zr1549  1  0.83333333  0.75000000  0.08333333  1
  Zr  Zr1550  1  0.83333333  0.75000000  0.16666667  1
  V  V1551  1  0.83333333  0.75000000  0.25000000  1
  V  V1552  1  0.83333333  0.75000000  0.33333333  1
  Cr  Cr1553  1  0.83333333  0.75000000  0.41666667  1
  Cr  Cr1554  1  0.83333333  0.75000000  0.50000000  1
  Cr  Cr1555  1  0.83333333  0.75000000  0.58333333  1
  Cr  Cr1556  1  0.83333333  0.75000000  0.66666667  1
  V  V1557  1  0.83333333  0.75000000  0.75000000  1
  Ti  Ti1558  1  0.83333333  0.75000000  0.83333333  1
  Zr  Zr1559  1  0.83333333  0.75000000  0.91666667  1
  Zr  Zr1560  1  0.83333333  0.83333333  1.00000000  1
  Zr  Zr1561  1  0.83333333  0.83333333  0.08333333  1
  Zr  Zr1562  1  0.83333333  0.83333333  0.16666667  1
  Zr  Zr1563  1  0.83333333  0.83333333  0.25000000  1
  V  V1564  1  0.83333333  0.83333333  0.33333333  1
  V  V1565  1  0.83333333  0.83333333  0.41666667  1
  Cr  Cr1566  1  0.83333333  0.83333333  0.50000000  1
  Cr  Cr1567  1  0.83333333  0.83333333  0.58333333  1
  V  V1568  1  0.83333333  0.83333333  0.66666667  1
  W  W1569  1  0.83333333  0.83333333  0.75000000  1
  Ti  Ti1570  1  0.83333333  0.83333333  0.83333333  1
  Zr  Zr1571  1  0.83333333  0.83333333  0.91666667  1
  Zr  Zr1572  1  0.83333333  0.91666667  1.00000000  1
  Zr  Zr1573  1  0.83333333  0.91666667  0.08333333  1
  Zr  Zr1574  1  0.83333333  0.91666667  0.16666667  1
  Zr  Zr1575  1  0.83333333  0.91666667  0.25000000  1
  Ti  Ti1576  1  0.83333333  0.91666667  0.33333333  1
  V  V1577  1  0.83333333  0.91666667  0.41666667  1
  V  V1578  1  0.83333333  0.91666667  0.50000000  1
  V  V1579  1  0.83333333  0.91666667  0.58333333  1
  V  V1580  1  0.83333333  0.91666667  0.66666667  1
  V  V1581  1  0.83333333  0.91666667  0.75000000  1
  Ti  Ti1582  1  0.83333333  0.91666667  0.83333333  1
  Zr  Zr1583  1  0.83333333  0.91666667  0.91666667  1
  Zr  Zr1584  1  0.91666667  0.00000000  0.00000000  1
  Zr  Zr1585  1  0.91666667  0.00000000  0.08333333  1
  Zr  Zr1586  1  0.91666667  0.00000000  0.16666667  1
  Zr  Zr1587  1  0.91666667  0.00000000  0.25000000  1
  Ti  Ti1588  1  0.91666667  0.00000000  0.33333333  1
  V  V1589  1  0.91666667  0.00000000  0.41666667  1
  V  V1590  1  0.91666667  0.00000000  0.50000000  1
  V  V1591  1  0.91666667  0.00000000  0.58333333  1
  V  V1592  1  0.91666667  0.00000000  0.66666667  1
  V  V1593  1  0.91666667  0.00000000  0.75000000  1
  V  V1594  1  0.91666667  0.00000000  0.83333333  1
  Ti  Ti1595  1  0.91666667  0.00000000  0.91666667  1
  Zr  Zr1596  1  0.91666667  0.08333333  1.00000000  1
  Zr  Zr1597  1  0.91666667  0.08333333  0.08333333  1
  Zr  Zr1598  1  0.91666667  0.08333333  0.16666667  1
  Zr  Zr1599  1  0.91666667  0.08333333  0.25000000  1
  Zr  Zr1600  1  0.91666667  0.08333333  0.33333333  1
  V  V1601  1  0.91666667  0.08333333  0.41666667  1
  V  V1602  1  0.91666667  0.08333333  0.50000000  1
  V  V1603  1  0.91666667  0.08333333  0.58333333  1
  W  W1604  1  0.91666667  0.08333333  0.66666667  1
  W  W1605  1  0.91666667  0.08333333  0.75000000  1
  V  V1606  1  0.91666667  0.08333333  0.83333333  1
  Ti  Ti1607  1  0.91666667  0.08333333  0.91666667  1
  Zr  Zr1608  1  0.91666667  0.16666667  0.00000000  1
  Zr  Zr1609  1  0.91666667  0.16666667  0.08333333  1
  Zr  Zr1610  1  0.91666667  0.16666667  0.16666667  1
  Zr  Zr1611  1  0.91666667  0.16666667  0.25000000  1
  Zr  Zr1612  1  0.91666667  0.16666667  0.33333333  1
  V  V1613  1  0.91666667  0.16666667  0.41666667  1
  V  V1614  1  0.91666667  0.16666667  0.50000000  1
  V  V1615  1  0.91666667  0.16666667  0.58333333  1
  V  V1616  1  0.91666667  0.16666667  0.66666667  1
  W  W1617  1  0.91666667  0.16666667  0.75000000  1
  V  V1618  1  0.91666667  0.16666667  0.83333333  1
  V  V1619  1  0.91666667  0.16666667  0.91666667  1
  V  V1620  1  0.91666667  0.25000000  0.00000000  1
  Zr  Zr1621  1  0.91666667  0.25000000  0.08333333  1
  Zr  Zr1622  1  0.91666667  0.25000000  0.16666667  1
  Zr  Zr1623  1  0.91666667  0.25000000  0.25000000  1
  Ti  Ti1624  1  0.91666667  0.25000000  0.33333333  1
  W  W1625  1  0.91666667  0.25000000  0.41666667  1
  V  V1626  1  0.91666667  0.25000000  0.50000000  1
  V  V1627  1  0.91666667  0.25000000  0.58333333  1
  V  V1628  1  0.91666667  0.25000000  0.66666667  1
  V  V1629  1  0.91666667  0.25000000  0.75000000  1
  V  V1630  1  0.91666667  0.25000000  0.83333333  1
  V  V1631  1  0.91666667  0.25000000  0.91666667  1
  V  V1632  1  0.91666667  0.33333333  1.00000000  1
  V  V1633  1  0.91666667  0.33333333  0.08333333  1
  V  V1634  1  0.91666667  0.33333333  0.16666667  1
  V  V1635  1  0.91666667  0.33333333  0.25000000  1
  V  V1636  1  0.91666667  0.33333333  0.33333333  1
  V  V1637  1  0.91666667  0.33333333  0.41666667  1
  V  V1638  1  0.91666667  0.33333333  0.50000000  1
  V  V1639  1  0.91666667  0.33333333  0.58333333  1
  V  V1640  1  0.91666667  0.33333333  0.66666667  1
  V  V1641  1  0.91666667  0.33333333  0.75000000  1
  V  V1642  1  0.91666667  0.33333333  0.83333333  1
  V  V1643  1  0.91666667  0.33333333  0.91666667  1
  V  V1644  1  0.91666667  0.41666667  0.00000000  1
  V  V1645  1  0.91666667  0.41666667  0.08333333  1
  W  W1646  1  0.91666667  0.41666667  0.16666667  1
  V  V1647  1  0.91666667  0.41666667  0.25000000  1
  V  V1648  1  0.91666667  0.41666667  0.33333333  1
  Cr  Cr1649  1  0.91666667  0.41666667  0.41666667  1
  Cr  Cr1650  1  0.91666667  0.41666667  0.50000000  1
  Cr  Cr1651  1  0.91666667  0.41666667  0.58333333  1
  W  W1652  1  0.91666667  0.41666667  0.66666667  1
  V  V1653  1  0.91666667  0.41666667  0.75000000  1
  V  V1654  1  0.91666667  0.41666667  0.83333333  1
  V  V1655  1  0.91666667  0.41666667  0.91666667  1
  V  V1656  1  0.91666667  0.50000000  0.00000000  1
  W  W1657  1  0.91666667  0.50000000  0.08333333  1
  V  V1658  1  0.91666667  0.50000000  0.16666667  1
  V  V1659  1  0.91666667  0.50000000  0.25000000  1
  Cr  Cr1660  1  0.91666667  0.50000000  0.33333333  1
  Cr  Cr1661  1  0.91666667  0.50000000  0.41666667  1
  Cr  Cr1662  1  0.91666667  0.50000000  0.50000000  1
  Cr  Cr1663  1  0.91666667  0.50000000  0.58333333  1
  Cr  Cr1664  1  0.91666667  0.50000000  0.66666667  1
  V  V1665  1  0.91666667  0.50000000  0.75000000  1
  V  V1666  1  0.91666667  0.50000000  0.83333333  1
  V  V1667  1  0.91666667  0.50000000  0.91666667  1
  W  W1668  1  0.91666667  0.58333333  0.00000000  1
  V  V1669  1  0.91666667  0.58333333  0.08333333  1
  V  V1670  1  0.91666667  0.58333333  0.16666667  1
  V  V1671  1  0.91666667  0.58333333  0.25000000  1
  Cr  Cr1672  1  0.91666667  0.58333333  0.33333333  1
  Cr  Cr1673  1  0.91666667  0.58333333  0.41666667  1
  Cr  Cr1674  1  0.91666667  0.58333333  0.50000000  1
  Cr  Cr1675  1  0.91666667  0.58333333  0.58333333  1
  Cr  Cr1676  1  0.91666667  0.58333333  0.66666667  1
  Cr  Cr1677  1  0.91666667  0.58333333  0.75000000  1
  V  V1678  1  0.91666667  0.58333333  0.83333333  1
  V  V1679  1  0.91666667  0.58333333  0.91666667  1
  V  V1680  1  0.91666667  0.66666667  1.00000000  1
  V  V1681  1  0.91666667  0.66666667  0.08333333  1
  V  V1682  1  0.91666667  0.66666667  0.16666667  1
  V  V1683  1  0.91666667  0.66666667  0.25000000  1
  Cr  Cr1684  1  0.91666667  0.66666667  0.33333333  1
  Cr  Cr1685  1  0.91666667  0.66666667  0.41666667  1
  Cr  Cr1686  1  0.91666667  0.66666667  0.50000000  1
  Cr  Cr1687  1  0.91666667  0.66666667  0.58333333  1
  Cr  Cr1688  1  0.91666667  0.66666667  0.66666667  1
  Cr  Cr1689  1  0.91666667  0.66666667  0.75000000  1
  V  V1690  1  0.91666667  0.66666667  0.83333333  1
  W  W1691  1  0.91666667  0.66666667  0.91666667  1
  Zr  Zr1692  1  0.91666667  0.75000000  1.00000000  1
  Zr  Zr1693  1  0.91666667  0.75000000  0.08333333  1
  Ti  Ti1694  1  0.91666667  0.75000000  0.16666667  1
  W  W1695  1  0.91666667  0.75000000  0.25000000  1
  V  V1696  1  0.91666667  0.75000000  0.33333333  1
  Cr  Cr1697  1  0.91666667  0.75000000  0.41666667  1
  Cr  Cr1698  1  0.91666667  0.75000000  0.50000000  1
  Cr  Cr1699  1  0.91666667  0.75000000  0.58333333  1
  Cr  Cr1700  1  0.91666667  0.75000000  0.66666667  1
  Cr  Cr1701  1  0.91666667  0.75000000  0.75000000  1
  V  V1702  1  0.91666667  0.75000000  0.83333333  1
  V  V1703  1  0.91666667  0.75000000  0.91666667  1
  Zr  Zr1704  1  0.91666667  0.83333333  1.00000000  1
  Zr  Zr1705  1  0.91666667  0.83333333  0.08333333  1
  Zr  Zr1706  1  0.91666667  0.83333333  0.16666667  1
  Ti  Ti1707  1  0.91666667  0.83333333  0.25000000  1
  V  V1708  1  0.91666667  0.83333333  0.33333333  1
  V  V1709  1  0.91666667  0.83333333  0.41666667  1
  Cr  Cr1710  1  0.91666667  0.83333333  0.50000000  1
  Cr  Cr1711  1  0.91666667  0.83333333  0.58333333  1
  Cr  Cr1712  1  0.91666667  0.83333333  0.66666667  1
  V  V1713  1  0.91666667  0.83333333  0.75000000  1
  V  V1714  1  0.91666667  0.83333333  0.83333333  1
  Ti  Ti1715  1  0.91666667  0.83333333  0.91666667  1
  Zr  Zr1716  1  0.91666667  0.91666667  1.00000000  1
  Zr  Zr1717  1  0.91666667  0.91666667  0.08333333  1
  Zr  Zr1718  1  0.91666667  0.91666667  0.16666667  1
  Zr  Zr1719  1  0.91666667  0.91666667  0.25000000  1
  Ti  Ti1720  1  0.91666667  0.91666667  0.33333333  1
  V  V1721  1  0.91666667  0.91666667  0.41666667  1
  V  V1722  1  0.91666667  0.91666667  0.50000000  1
  Cr  Cr1723  1  0.91666667  0.91666667  0.58333333  1
  Cr  Cr1724  1  0.91666667  0.91666667  0.66666667  1
  V  V1725  1  0.91666667  0.91666667  0.75000000  1
  V  V1726  1  0.91666667  0.91666667  0.83333333  1
  Ti  Ti1727  1  0.91666667  0.91666667  0.91666667  1
